<routes> 
<vType id="vehicle0" accel="0.8" decel="4.5" sigma="0.5" length="5" minGap="2.5" maxSpeed="16.67" guiShape="passenger" /> 
<vehicle id ="0" depart="0.5" departLane="free" departSpeed="max"> 
<route id="0" edges="-422766323#3 422766323#3 422766356#0 422766364#2 -422766333 -422766366#4 -422766366#3 -422766366#2 -422766360#2 -422766325 422766340#1 -422766360#0 422766370#9 422766370#10 -423596215#2 -423596215#1 423596238#0 423596238#1 423596238#2 -193223413#2 " /> 
</vehicle> 
<vType id="vehicle1" accel="0.8" decel="4.5" sigma="0.5" length="5" minGap="2.5" maxSpeed="16.67" guiShape="passenger" /> 
<vehicle id ="1" depart="1.5" departLane="free" departSpeed="max"> 
<route id="1" edges="-422766323#3 422766323#3 422766356#0 422766364#2 -422766333 -422766366#4 -422766366#3 -422766366#2 -422766360#2 -422766325 422766340#1 -422766360#0 422766370#9 422766370#10 -423596215#2 -423596215#1 423596238#0 423596238#1 423596238#2 -193223413#2 " /> 
</vehicle> 
<vType id="vehicle2" accel="0.8" decel="4.5" sigma="0.5" length="5" minGap="2.5" maxSpeed="16.67" guiShape="passenger" /> 
<vehicle id ="2" depart="2.5" departLane="free" departSpeed="max"> 
<route id="2" edges="-422766323#3 422766323#3 422766356#0 422766364#2 -422766333 -422766366#4 -422766366#3 -422766366#2 -422766360#2 -422766325 422766340#1 -422766360#0 422766370#9 422766370#10 -423596215#2 -423596215#1 423596238#0 423596238#1 423596238#2 -193223413#2 " /> 
</vehicle> 
<vType id="vehicle3" accel="0.8" decel="4.5" sigma="0.5" length="5" minGap="2.5" maxSpeed="16.67" guiShape="passenger" /> 
<vehicle id ="3" depart="3.5" departLane="free" departSpeed="max"> 
<route id="3" edges="-422766323#3 422766323#3 422766356#0 422766364#2 -422766333 -422766366#4 -422766366#3 -422766366#2 -422766360#2 -422766325 422766340#1 -422766360#0 422766370#9 422766370#10 -423596215#2 -423596215#1 423596238#0 423596238#1 423596238#2 -193223413#2 " /> 
</vehicle> 
<vType id="vehicle4" accel="0.8" decel="4.5" sigma="0.5" length="5" minGap="2.5" maxSpeed="16.67" guiShape="passenger" /> 
<vehicle id ="4" depart="4.5" departLane="free" departSpeed="max"> 
<route id="4" edges="-422766323#3 422766323#3 422766356#0 422766364#2 -422766333 -422766366#4 -422766366#3 -422766366#2 -422766360#2 -422766325 422766340#1 -422766360#0 422766370#9 422766370#10 -423596215#2 -423596215#1 423596238#0 423596238#1 423596238#2 -193223413#2 " /> 
</vehicle> 
<vType id="vehicle5" accel="0.8" decel="4.5" sigma="0.5" length="5" minGap="2.5" maxSpeed="16.67" guiShape="passenger" /> 
<vehicle id ="5" depart="5.5" departLane="free" departSpeed="max"> 
<route id="5" edges="-422766323#3 422766323#3 422766356#0 422766364#2 -422766333 -422766366#4 -422766366#3 -422766366#2 -422766360#2 -422766325 422766340#1 -422766360#0 422766370#9 422766370#10 -423596215#2 -423596215#1 423596238#0 423596238#1 423596238#2 -193223413#2 " /> 
</vehicle> 
<vType id="vehicle6" accel="0.8" decel="4.5" sigma="0.5" length="5" minGap="2.5" maxSpeed="16.67" guiShape="passenger" /> 
<vehicle id ="6" depart="6.5" departLane="free" departSpeed="max"> 
<route id="6" edges="-422766323#3 422766323#3 422766356#0 422766364#2 -422766333 -422766366#4 -422766366#3 -422766366#2 -422766360#2 -422766325 422766340#1 -422766360#0 422766370#9 422766370#10 -423596215#2 -423596215#1 423596238#0 423596238#1 423596238#2 -193223413#2 " /> 
</vehicle> 
<vType id="vehicle7" accel="0.8" decel="4.5" sigma="0.5" length="5" minGap="2.5" maxSpeed="16.67" guiShape="passenger" /> 
<vehicle id ="7" depart="7.5" departLane="free" departSpeed="max"> 
<route id="7" edges="-422766323#3 422766323#3 422766356#0 422766364#2 -422766333 -422766366#4 -422766366#3 -422766366#2 -422766360#2 -422766325 422766340#1 -422766360#0 422766370#9 422766370#10 -423596215#2 -423596215#1 423596238#0 423596238#1 423596238#2 -193223413#2 " /> 
</vehicle> 
<vType id="vehicle8" accel="0.8" decel="4.5" sigma="0.5" length="5" minGap="2.5" maxSpeed="16.67" guiShape="passenger" /> 
<vehicle id ="8" depart="8.5" departLane="free" departSpeed="max"> 
<route id="8" edges="-422766323#3 422766323#3 422766356#0 422766364#2 -422766333 -422766366#4 -422766366#3 -422766366#2 -422766360#2 -422766325 422766340#1 -422766360#0 422766370#9 422766370#10 -423596215#2 -423596215#1 423596238#0 423596238#1 423596238#2 -193223413#2 " /> 
</vehicle> 
<vType id="vehicle9" accel="0.8" decel="4.5" sigma="0.5" length="5" minGap="2.5" maxSpeed="16.67" guiShape="passenger" /> 
<vehicle id ="9" depart="9.5" departLane="free" departSpeed="max"> 
<route id="9" edges="-422766323#3 422766323#3 422766356#0 422766364#2 -422766333 -422766366#4 -422766366#3 -422766366#2 -422766360#2 -422766325 422766340#1 -422766360#0 422766370#9 422766370#10 -423596215#2 -423596215#1 423596238#0 423596238#1 423596238#2 -193223413#2 " /> 
</vehicle> 
<vType id="vehicle10" accel="0.8" decel="4.5" sigma="0.5" length="5" minGap="2.5" maxSpeed="16.67" guiShape="passenger" /> 
<vehicle id ="10" depart="10.5" departLane="free" departSpeed="max"> 
<route id="10" edges="-422766323#3 422766323#3 422766356#0 422766364#2 -422766333 -422766366#4 -422766366#3 -422766366#2 -422766360#2 -422766325 422766340#1 -422766360#0 422766370#9 422766370#10 -423596215#2 -423596215#1 423596238#0 423596238#1 423596238#2 -193223413#2 " /> 
</vehicle> 
<vType id="vehicle11" accel="0.8" decel="4.5" sigma="0.5" length="5" minGap="2.5" maxSpeed="16.67" guiShape="passenger" /> 
<vehicle id ="11" depart="11.5" departLane="free" departSpeed="max"> 
<route id="11" edges="-422766323#3 422766323#3 422766356#0 422766364#2 -422766333 -422766366#4 -422766366#3 -422766366#2 -422766360#2 -422766325 422766340#1 -422766360#0 422766370#9 422766370#10 -423596215#2 -423596215#1 423596238#0 423596238#1 423596238#2 -193223413#2 " /> 
</vehicle> 
<vType id="vehicle12" accel="0.8" decel="4.5" sigma="0.5" length="5" minGap="2.5" maxSpeed="16.67" guiShape="passenger" /> 
<vehicle id ="12" depart="12.5" departLane="free" departSpeed="max"> 
<route id="12" edges="-422766323#3 422766323#3 422766356#0 422766364#2 -422766333 -422766366#4 -422766366#3 -422766366#2 -422766360#2 -422766325 422766340#1 -422766360#0 422766370#9 422766370#10 -423596215#2 -423596215#1 423596238#0 423596238#1 423596238#2 -193223413#2 " /> 
</vehicle> 
<vType id="vehicle13" accel="0.8" decel="4.5" sigma="0.5" length="5" minGap="2.5" maxSpeed="16.67" guiShape="passenger" /> 
<vehicle id ="13" depart="13.5" departLane="free" departSpeed="max"> 
<route id="13" edges="-422766323#3 422766323#3 422766356#0 422766364#2 -422766333 -422766366#4 -422766366#3 -422766366#2 -422766360#2 -422766325 422766340#1 -422766360#0 422766370#9 422766370#10 -423596215#2 -423596215#1 423596238#0 423596238#1 423596238#2 -193223413#2 " /> 
</vehicle> 
<vType id="vehicle14" accel="0.8" decel="4.5" sigma="0.5" length="5" minGap="2.5" maxSpeed="16.67" guiShape="passenger" /> 
<vehicle id ="14" depart="14.5" departLane="free" departSpeed="max"> 
<route id="14" edges="-422766323#3 422766323#3 422766356#0 422766364#2 -422766333 -422766366#4 -422766366#3 -422766366#2 -422766360#2 -422766325 422766340#1 -422766360#0 422766370#9 422766370#10 -423596215#2 -423596215#1 423596238#0 423596238#1 423596238#2 -193223413#2 " /> 
</vehicle> 
<vType id="vehicle15" accel="0.8" decel="4.5" sigma="0.5" length="5" minGap="2.5" maxSpeed="16.67" guiShape="passenger" /> 
<vehicle id ="15" depart="15.5" departLane="free" departSpeed="max"> 
<route id="15" edges="-422766323#3 422766323#3 422766356#0 422766364#2 -422766333 -422766366#4 -422766366#3 -422766366#2 -422766360#2 -422766325 422766340#1 -422766360#0 422766370#9 422766370#10 -423596215#2 -423596215#1 423596238#0 423596238#1 423596238#2 -193223413#2 " /> 
</vehicle> 
<vType id="vehicle16" accel="0.8" decel="4.5" sigma="0.5" length="5" minGap="2.5" maxSpeed="16.67" guiShape="passenger" /> 
<vehicle id ="16" depart="16.5" departLane="free" departSpeed="max"> 
<route id="16" edges="-422766323#3 422766323#3 422766356#0 422766364#2 -422766333 -422766366#4 -422766366#3 -422766366#2 -422766360#2 -422766325 422766340#1 -422766360#0 422766370#9 422766370#10 -423596215#2 -423596215#1 423596238#0 423596238#1 423596238#2 -193223413#2 " /> 
</vehicle> 
<vType id="vehicle17" accel="0.8" decel="4.5" sigma="0.5" length="5" minGap="2.5" maxSpeed="16.67" guiShape="passenger" /> 
<vehicle id ="17" depart="17.5" departLane="free" departSpeed="max"> 
<route id="17" edges="-422766323#3 422766323#3 422766356#0 422766364#2 -422766333 -422766366#4 -422766366#3 -422766366#2 -422766360#2 -422766325 422766340#1 -422766360#0 422766370#9 422766370#10 -423596215#2 -423596215#1 423596238#0 423596238#1 423596238#2 -193223413#2 " /> 
</vehicle> 
<vType id="vehicle18" accel="0.8" decel="4.5" sigma="0.5" length="5" minGap="2.5" maxSpeed="16.67" guiShape="passenger" /> 
<vehicle id ="18" depart="18.5" departLane="free" departSpeed="max"> 
<route id="18" edges="-422766323#3 422766323#3 422766356#0 422766364#2 -422766333 -422766366#4 -422766366#3 -422766366#2 -422766360#2 -422766325 422766340#1 -422766360#0 422766370#9 422766370#10 -423596215#2 -423596215#1 423596238#0 423596238#1 423596238#2 -193223413#2 " /> 
</vehicle> 
<vType id="vehicle19" accel="0.8" decel="4.5" sigma="0.5" length="5" minGap="2.5" maxSpeed="16.67" guiShape="passenger" /> 
<vehicle id ="19" depart="19.5" departLane="free" departSpeed="max"> 
<route id="19" edges="-422766323#3 422766323#3 422766356#0 422766364#2 -422766333 -422766366#4 -422766366#3 -422766366#2 -422766360#2 -422766325 422766340#1 -422766360#0 422766370#9 422766370#10 -423596215#2 -423596215#1 423596238#0 423596238#1 423596238#2 -193223413#2 " /> 
</vehicle> 
<vType id="vehicle20" accel="0.8" decel="4.5" sigma="0.5" length="5" minGap="2.5" maxSpeed="16.67" guiShape="passenger" /> 
<vehicle id ="20" depart="20.5" departLane="free" departSpeed="max"> 
<route id="20" edges="-422766323#3 422766323#3 422766356#0 422766364#2 -422766333 -422766366#4 -422766366#3 -422766366#2 -422766360#2 -422766325 422766340#1 -422766360#0 422766370#9 422766370#10 -423596215#2 -423596215#1 423596238#0 423596238#1 423596238#2 -193223413#2 " /> 
</vehicle> 
<vType id="vehicle21" accel="0.8" decel="4.5" sigma="0.5" length="5" minGap="2.5" maxSpeed="16.67" guiShape="passenger" /> 
<vehicle id ="21" depart="21.5" departLane="free" departSpeed="max"> 
<route id="21" edges="-422766323#3 422766323#3 422766356#0 422766364#2 -422766333 -422766366#4 -422766366#3 -422766366#2 -422766360#2 -422766325 422766340#1 -422766360#0 422766370#9 422766370#10 -423596215#2 -423596215#1 423596238#0 423596238#1 423596238#2 -193223413#2 " /> 
</vehicle> 
<vType id="vehicle22" accel="0.8" decel="4.5" sigma="0.5" length="5" minGap="2.5" maxSpeed="16.67" guiShape="passenger" /> 
<vehicle id ="22" depart="22.5" departLane="free" departSpeed="max"> 
<route id="22" edges="-422766323#3 422766323#3 422766356#0 422766364#2 -422766333 -422766366#4 -422766366#3 -422766366#2 -422766360#2 -422766325 422766340#1 -422766360#0 422766370#9 422766370#10 -423596215#2 -423596215#1 423596238#0 423596238#1 423596238#2 -193223413#2 " /> 
</vehicle> 
<vType id="vehicle23" accel="0.8" decel="4.5" sigma="0.5" length="5" minGap="2.5" maxSpeed="16.67" guiShape="passenger" /> 
<vehicle id ="23" depart="23.5" departLane="free" departSpeed="max"> 
<route id="23" edges="-422766323#3 422766323#3 422766356#0 422766364#2 -422766333 -422766366#4 -422766366#3 -422766366#2 -422766360#2 -422766325 422766340#1 -422766360#0 422766370#9 422766370#10 -423596215#2 -423596215#1 423596238#0 423596238#1 423596238#2 -193223413#2 " /> 
</vehicle> 
<vType id="vehicle24" accel="0.8" decel="4.5" sigma="0.5" length="5" minGap="2.5" maxSpeed="16.67" guiShape="passenger" /> 
<vehicle id ="24" depart="24.5" departLane="free" departSpeed="max"> 
<route id="24" edges="-422766323#3 422766323#3 422766356#0 422766364#2 -422766333 -422766366#4 -422766366#3 -422766366#2 -422766360#2 -422766325 422766340#1 -422766360#0 422766370#9 422766370#10 -423596215#2 -423596215#1 423596238#0 423596238#1 423596238#2 -193223413#2 " /> 
</vehicle> 
<vType id="vehicle25" accel="0.8" decel="4.5" sigma="0.5" length="5" minGap="2.5" maxSpeed="16.67" guiShape="passenger" /> 
<vehicle id ="25" depart="25.5" departLane="free" departSpeed="max"> 
<route id="25" edges="-422766323#3 422766323#3 422766356#0 422766364#2 -422766333 -422766366#4 -422766366#3 -422766366#2 -422766360#2 -422766325 422766340#1 -422766360#0 422766370#9 422766370#10 -423596215#2 -423596215#1 423596238#0 423596238#1 423596238#2 -193223413#2 " /> 
</vehicle> 
<vType id="vehicle26" accel="0.8" decel="4.5" sigma="0.5" length="5" minGap="2.5" maxSpeed="16.67" guiShape="passenger" /> 
<vehicle id ="26" depart="26.5" departLane="free" departSpeed="max"> 
<route id="26" edges="-422766323#3 422766323#3 422766356#0 422766364#2 -422766333 -422766366#4 -422766366#3 -422766366#2 -422766360#2 -422766325 422766340#1 -422766360#0 422766370#9 422766370#10 -423596215#2 -423596215#1 423596238#0 423596238#1 423596238#2 -193223413#2 " /> 
</vehicle> 
<vType id="vehicle27" accel="0.8" decel="4.5" sigma="0.5" length="5" minGap="2.5" maxSpeed="16.67" guiShape="passenger" /> 
<vehicle id ="27" depart="27.5" departLane="free" departSpeed="max"> 
<route id="27" edges="-422766323#3 422766323#3 422766356#0 422766364#2 -422766333 -422766366#4 -422766366#3 -422766366#2 -422766360#2 -422766325 422766340#1 -422766360#0 422766370#9 422766370#10 -423596215#2 -423596215#1 423596238#0 423596238#1 423596238#2 -193223413#2 " /> 
</vehicle> 
<vType id="vehicle28" accel="0.8" decel="4.5" sigma="0.5" length="5" minGap="2.5" maxSpeed="16.67" guiShape="passenger" /> 
<vehicle id ="28" depart="28.5" departLane="free" departSpeed="max"> 
<route id="28" edges="-422766323#3 422766323#3 422766356#0 422766364#2 -422766333 -422766366#4 -422766366#3 -422766366#2 -422766360#2 -422766325 422766340#1 -422766360#0 422766370#9 422766370#10 -423596215#2 -423596215#1 423596238#0 423596238#1 423596238#2 -193223413#2 " /> 
</vehicle> 
<vType id="vehicle29" accel="0.8" decel="4.5" sigma="0.5" length="5" minGap="2.5" maxSpeed="16.67" guiShape="passenger" /> 
<vehicle id ="29" depart="29.5" departLane="free" departSpeed="max"> 
<route id="29" edges="-422766323#3 422766323#3 422766356#0 422766364#2 -422766333 -422766366#4 -422766366#3 -422766366#2 -422766360#2 -422766325 422766340#1 -422766360#0 422766370#9 422766370#10 -423596215#2 -423596215#1 423596238#0 423596238#1 423596238#2 -193223413#2 " /> 
</vehicle> 
<vType id="vehicle30" accel="0.8" decel="4.5" sigma="0.5" length="5" minGap="2.5" maxSpeed="16.67" guiShape="passenger" /> 
<vehicle id ="30" depart="30.5" departLane="free" departSpeed="max"> 
<route id="30" edges="-422766323#3 422766323#3 422766356#0 422766364#2 -422766333 -422766366#4 -422766366#3 -422766366#2 -422766360#2 -422766325 422766340#1 -422766360#0 422766370#9 422766370#10 -423596215#2 -423596215#1 423596238#0 423596238#1 423596238#2 -193223413#2 " /> 
</vehicle> 
<vType id="vehicle31" accel="0.8" decel="4.5" sigma="0.5" length="5" minGap="2.5" maxSpeed="16.67" guiShape="passenger" /> 
<vehicle id ="31" depart="31.5" departLane="free" departSpeed="max"> 
<route id="31" edges="-422766323#3 422766323#3 422766356#0 422766364#2 -422766333 -422766366#4 -422766366#3 -422766366#2 -422766360#2 -422766325 422766340#1 -422766360#0 422766370#9 422766370#10 -423596215#2 -423596215#1 423596238#0 423596238#1 423596238#2 -193223413#2 " /> 
</vehicle> 
<vType id="vehicle32" accel="0.8" decel="4.5" sigma="0.5" length="5" minGap="2.5" maxSpeed="16.67" guiShape="passenger" /> 
<vehicle id ="32" depart="32.5" departLane="free" departSpeed="max"> 
<route id="32" edges="-422766323#3 422766323#3 422766356#0 422766364#2 -422766333 -422766366#4 -422766366#3 -422766366#2 -422766360#2 -422766325 422766340#1 -422766360#0 422766370#9 422766370#10 -423596215#2 -423596215#1 423596238#0 423596238#1 423596238#2 -193223413#2 " /> 
</vehicle> 
<vType id="vehicle33" accel="0.8" decel="4.5" sigma="0.5" length="5" minGap="2.5" maxSpeed="16.67" guiShape="passenger" /> 
<vehicle id ="33" depart="33.5" departLane="free" departSpeed="max"> 
<route id="33" edges="-422766323#3 422766323#3 422766356#0 422766364#2 -422766333 -422766366#4 -422766366#3 -422766366#2 -422766360#2 -422766325 422766340#1 -422766360#0 422766370#9 422766370#10 -423596215#2 -423596215#1 423596238#0 423596238#1 423596238#2 -193223413#2 " /> 
</vehicle> 
<vType id="vehicle34" accel="0.8" decel="4.5" sigma="0.5" length="5" minGap="2.5" maxSpeed="16.67" guiShape="passenger" /> 
<vehicle id ="34" depart="34.5" departLane="free" departSpeed="max"> 
<route id="34" edges="-422766323#3 422766323#3 422766356#0 422766364#2 -422766333 -422766366#4 -422766366#3 -422766366#2 -422766360#2 -422766325 422766340#1 -422766360#0 422766370#9 422766370#10 -423596215#2 -423596215#1 423596238#0 423596238#1 423596238#2 -193223413#2 " /> 
</vehicle> 
<vType id="vehicle35" accel="0.8" decel="4.5" sigma="0.5" length="5" minGap="2.5" maxSpeed="16.67" guiShape="passenger" /> 
<vehicle id ="35" depart="35.5" departLane="free" departSpeed="max"> 
<route id="35" edges="-422766323#3 422766323#3 422766356#0 422766364#2 -422766333 -422766366#4 -422766366#3 -422766366#2 -422766360#2 -422766325 422766340#1 -422766360#0 422766370#9 422766370#10 -423596215#2 -423596215#1 423596238#0 423596238#1 423596238#2 -193223413#2 " /> 
</vehicle> 
<vType id="vehicle36" accel="0.8" decel="4.5" sigma="0.5" length="5" minGap="2.5" maxSpeed="16.67" guiShape="passenger" /> 
<vehicle id ="36" depart="36.5" departLane="free" departSpeed="max"> 
<route id="36" edges="-422766323#3 422766323#3 422766356#0 422766364#2 -422766333 -422766366#4 -422766366#3 -422766366#2 -422766360#2 -422766325 422766340#1 -422766360#0 422766370#9 422766370#10 -423596215#2 -423596215#1 423596238#0 423596238#1 423596238#2 -193223413#2 " /> 
</vehicle> 
<vType id="vehicle37" accel="0.8" decel="4.5" sigma="0.5" length="5" minGap="2.5" maxSpeed="16.67" guiShape="passenger" /> 
<vehicle id ="37" depart="37.5" departLane="free" departSpeed="max"> 
<route id="37" edges="-422766323#3 422766323#3 422766356#0 422766364#2 -422766333 -422766366#4 -422766366#3 -422766366#2 -422766360#2 -422766325 422766340#1 -422766360#0 422766370#9 422766370#10 -423596215#2 -423596215#1 423596238#0 423596238#1 423596238#2 -193223413#2 " /> 
</vehicle> 
<vType id="vehicle38" accel="0.8" decel="4.5" sigma="0.5" length="5" minGap="2.5" maxSpeed="16.67" guiShape="passenger" /> 
<vehicle id ="38" depart="38.5" departLane="free" departSpeed="max"> 
<route id="38" edges="-422766323#3 422766323#3 422766356#0 422766364#2 -422766333 -422766366#4 -422766366#3 -422766366#2 -422766360#2 -422766325 422766340#1 -422766360#0 422766370#9 422766370#10 -423596215#2 -423596215#1 423596238#0 423596238#1 423596238#2 -193223413#2 " /> 
</vehicle> 
<vType id="vehicle39" accel="0.8" decel="4.5" sigma="0.5" length="5" minGap="2.5" maxSpeed="16.67" guiShape="passenger" /> 
<vehicle id ="39" depart="39.5" departLane="free" departSpeed="max"> 
<route id="39" edges="-422766323#3 422766323#3 422766356#0 422766364#2 -422766333 -422766366#4 -422766366#3 -422766366#2 -422766360#2 -422766325 422766340#1 -422766360#0 422766370#9 422766370#10 -423596215#2 -423596215#1 423596238#0 423596238#1 423596238#2 -193223413#2 " /> 
</vehicle> 
<vType id="vehicle40" accel="0.8" decel="4.5" sigma="0.5" length="5" minGap="2.5" maxSpeed="16.67" guiShape="passenger" /> 
<vehicle id ="40" depart="40.5" departLane="free" departSpeed="max"> 
<route id="40" edges="-422766323#3 422766323#3 422766356#0 422766364#2 -422766333 -422766366#4 -422766366#3 -422766366#2 -422766360#2 -422766325 422766340#1 -422766360#0 422766370#9 422766370#10 -423596215#2 -423596215#1 423596238#0 423596238#1 423596238#2 -193223413#2 " /> 
</vehicle> 
<vType id="vehicle41" accel="0.8" decel="4.5" sigma="0.5" length="5" minGap="2.5" maxSpeed="16.67" guiShape="passenger" /> 
<vehicle id ="41" depart="41.5" departLane="free" departSpeed="max"> 
<route id="41" edges="-422766323#3 422766323#3 422766356#0 422766364#2 -422766333 -422766366#4 -422766366#3 -422766366#2 -422766360#2 -422766325 422766340#1 -422766360#0 422766370#9 422766370#10 -423596215#2 -423596215#1 423596238#0 423596238#1 423596238#2 -193223413#2 " /> 
</vehicle> 
<vType id="vehicle42" accel="0.8" decel="4.5" sigma="0.5" length="5" minGap="2.5" maxSpeed="16.67" guiShape="passenger" /> 
<vehicle id ="42" depart="42.5" departLane="free" departSpeed="max"> 
<route id="42" edges="-422766323#3 422766323#3 422766356#0 422766364#2 -422766333 -422766366#4 -422766366#3 -422766366#2 -422766360#2 -422766325 422766340#1 -422766360#0 422766370#9 422766370#10 -423596215#2 -423596215#1 423596238#0 423596238#1 423596238#2 -193223413#2 " /> 
</vehicle> 
<vType id="vehicle43" accel="0.8" decel="4.5" sigma="0.5" length="5" minGap="2.5" maxSpeed="16.67" guiShape="passenger" /> 
<vehicle id ="43" depart="43.5" departLane="free" departSpeed="max"> 
<route id="43" edges="-422766323#3 422766323#3 422766356#0 422766364#2 -422766333 -422766366#4 -422766366#3 -422766366#2 -422766360#2 -422766325 422766340#1 -422766360#0 422766370#9 422766370#10 -423596215#2 -423596215#1 423596238#0 423596238#1 423596238#2 -193223413#2 " /> 
</vehicle> 
<vType id="vehicle44" accel="0.8" decel="4.5" sigma="0.5" length="5" minGap="2.5" maxSpeed="16.67" guiShape="passenger" /> 
<vehicle id ="44" depart="44.5" departLane="free" departSpeed="max"> 
<route id="44" edges="-422766323#3 422766323#3 422766356#0 422766364#2 -422766333 -422766366#4 -422766366#3 -422766366#2 -422766360#2 -422766325 422766340#1 -422766360#0 422766370#9 422766370#10 -423596215#2 -423596215#1 423596238#0 423596238#1 423596238#2 -193223413#2 " /> 
</vehicle> 
<vType id="vehicle45" accel="0.8" decel="4.5" sigma="0.5" length="5" minGap="2.5" maxSpeed="16.67" guiShape="passenger" /> 
<vehicle id ="45" depart="45.5" departLane="free" departSpeed="max"> 
<route id="45" edges="-422766323#3 422766323#3 422766356#0 422766364#2 -422766333 -422766366#4 -422766366#3 -422766366#2 -422766360#2 -422766325 422766340#1 -422766360#0 422766370#9 422766370#10 -423596215#2 -423596215#1 423596238#0 423596238#1 423596238#2 -193223413#2 " /> 
</vehicle> 
<vType id="vehicle46" accel="0.8" decel="4.5" sigma="0.5" length="5" minGap="2.5" maxSpeed="16.67" guiShape="passenger" /> 
<vehicle id ="46" depart="46.5" departLane="free" departSpeed="max"> 
<route id="46" edges="-422766323#3 422766323#3 422766356#0 422766364#2 -422766333 -422766366#4 -422766366#3 -422766366#2 -422766360#2 -422766325 422766340#1 -422766360#0 422766370#9 422766370#10 -423596215#2 -423596215#1 423596238#0 423596238#1 423596238#2 -193223413#2 " /> 
</vehicle> 
<vType id="vehicle47" accel="0.8" decel="4.5" sigma="0.5" length="5" minGap="2.5" maxSpeed="16.67" guiShape="passenger" /> 
<vehicle id ="47" depart="47.5" departLane="free" departSpeed="max"> 
<route id="47" edges="-422766323#3 422766323#3 422766356#0 422766364#2 -422766333 -422766366#4 -422766366#3 -422766366#2 -422766360#2 -422766325 422766340#1 -422766360#0 422766370#9 422766370#10 -423596215#2 -423596215#1 423596238#0 423596238#1 423596238#2 -193223413#2 " /> 
</vehicle> 
<vType id="vehicle48" accel="0.8" decel="4.5" sigma="0.5" length="5" minGap="2.5" maxSpeed="16.67" guiShape="passenger" /> 
<vehicle id ="48" depart="48.5" departLane="free" departSpeed="max"> 
<route id="48" edges="-422766323#3 422766323#3 422766356#0 422766364#2 -422766333 -422766366#4 -422766366#3 -422766366#2 -422766360#2 -422766325 422766340#1 -422766360#0 422766370#9 422766370#10 -423596215#2 -423596215#1 423596238#0 423596238#1 423596238#2 -193223413#2 " /> 
</vehicle> 
<vType id="vehicle49" accel="0.8" decel="4.5" sigma="0.5" length="5" minGap="2.5" maxSpeed="16.67" guiShape="passenger" /> 
<vehicle id ="49" depart="49.5" departLane="free" departSpeed="max"> 
<route id="49" edges="-422766323#3 422766323#3 422766356#0 422766364#2 -422766333 -422766366#4 -422766366#3 -422766366#2 -422766360#2 -422766325 422766340#1 -422766360#0 422766370#9 422766370#10 -423596215#2 -423596215#1 423596238#0 423596238#1 423596238#2 -193223413#2 " /> 
</vehicle> 
<vType id="vehicle50" accel="0.8" decel="4.5" sigma="0.5" length="5" minGap="2.5" maxSpeed="16.67" guiShape="passenger" /> 
<vehicle id ="50" depart="50.5" departLane="free" departSpeed="max"> 
<route id="50" edges="-422766323#3 422766323#3 422766356#0 422766364#2 -422766333 -422766366#4 -422766366#3 -422766366#2 -422766360#2 -422766325 422766340#1 -422766360#0 422766370#9 422766370#10 -423596215#2 -423596215#1 423596238#0 423596238#1 423596238#2 -193223413#2 " /> 
</vehicle> 
<vType id="vehicle51" accel="0.8" decel="4.5" sigma="0.5" length="5" minGap="2.5" maxSpeed="16.67" guiShape="passenger" /> 
<vehicle id ="51" depart="51.5" departLane="free" departSpeed="max"> 
<route id="51" edges="-422766323#3 422766323#3 422766356#0 422766364#2 -422766333 -422766366#4 -422766366#3 -422766366#2 -422766360#2 -422766325 422766340#1 -422766360#0 422766370#9 422766370#10 -423596215#2 -423596215#1 423596238#0 423596238#1 423596238#2 -193223413#2 " /> 
</vehicle> 
<vType id="vehicle52" accel="0.8" decel="4.5" sigma="0.5" length="5" minGap="2.5" maxSpeed="16.67" guiShape="passenger" /> 
<vehicle id ="52" depart="52.5" departLane="free" departSpeed="max"> 
<route id="52" edges="-422766323#3 422766323#3 422766356#0 422766364#2 -422766333 -422766366#4 -422766366#3 -422766366#2 -422766360#2 -422766325 422766340#1 -422766360#0 422766370#9 422766370#10 -423596215#2 -423596215#1 423596238#0 423596238#1 423596238#2 -193223413#2 " /> 
</vehicle> 
<vType id="vehicle53" accel="0.8" decel="4.5" sigma="0.5" length="5" minGap="2.5" maxSpeed="16.67" guiShape="passenger" /> 
<vehicle id ="53" depart="53.5" departLane="free" departSpeed="max"> 
<route id="53" edges="-422766323#3 422766323#3 422766356#0 422766364#2 -422766333 -422766366#4 -422766366#3 -422766366#2 -422766360#2 -422766325 422766340#1 -422766360#0 422766370#9 422766370#10 -423596215#2 -423596215#1 423596238#0 423596238#1 423596238#2 -193223413#2 " /> 
</vehicle> 
<vType id="vehicle54" accel="0.8" decel="4.5" sigma="0.5" length="5" minGap="2.5" maxSpeed="16.67" guiShape="passenger" /> 
<vehicle id ="54" depart="54.5" departLane="free" departSpeed="max"> 
<route id="54" edges="-422766323#3 422766323#3 422766356#0 422766364#2 -422766333 -422766366#4 -422766366#3 -422766366#2 -422766360#2 -422766325 422766340#1 -422766360#0 422766370#9 422766370#10 -423596215#2 -423596215#1 423596238#0 423596238#1 423596238#2 -193223413#2 " /> 
</vehicle> 
<vType id="vehicle55" accel="0.8" decel="4.5" sigma="0.5" length="5" minGap="2.5" maxSpeed="16.67" guiShape="passenger" /> 
<vehicle id ="55" depart="55.5" departLane="free" departSpeed="max"> 
<route id="55" edges="-422766323#3 422766323#3 422766356#0 422766364#2 -422766333 -422766366#4 -422766366#3 -422766366#2 -422766360#2 -422766325 422766340#1 -422766360#0 422766370#9 422766370#10 -423596215#2 -423596215#1 423596238#0 423596238#1 423596238#2 -193223413#2 " /> 
</vehicle> 
<vType id="vehicle56" accel="0.8" decel="4.5" sigma="0.5" length="5" minGap="2.5" maxSpeed="16.67" guiShape="passenger" /> 
<vehicle id ="56" depart="56.5" departLane="free" departSpeed="max"> 
<route id="56" edges="-422766323#3 422766323#3 422766356#0 422766364#2 -422766333 -422766366#4 -422766366#3 -422766366#2 -422766360#2 -422766325 422766340#1 -422766360#0 422766370#9 422766370#10 -423596215#2 -423596215#1 423596238#0 423596238#1 423596238#2 -193223413#2 " /> 
</vehicle> 
<vType id="vehicle57" accel="0.8" decel="4.5" sigma="0.5" length="5" minGap="2.5" maxSpeed="16.67" guiShape="passenger" /> 
<vehicle id ="57" depart="57.5" departLane="free" departSpeed="max"> 
<route id="57" edges="-422766323#3 422766323#3 422766356#0 422766364#2 -422766333 -422766366#4 -422766366#3 -422766366#2 -422766360#2 -422766325 422766340#1 -422766360#0 422766370#9 422766370#10 -423596215#2 -423596215#1 423596238#0 423596238#1 423596238#2 -193223413#2 " /> 
</vehicle> 
<vType id="vehicle58" accel="0.8" decel="4.5" sigma="0.5" length="5" minGap="2.5" maxSpeed="16.67" guiShape="passenger" /> 
<vehicle id ="58" depart="58.5" departLane="free" departSpeed="max"> 
<route id="58" edges="-422766323#3 422766323#3 422766356#0 422766364#2 -422766333 -422766366#4 -422766366#3 -422766366#2 -422766360#2 -422766325 422766340#1 -422766360#0 422766370#9 422766370#10 -423596215#2 -423596215#1 423596238#0 423596238#1 423596238#2 -193223413#2 " /> 
</vehicle> 
<vType id="vehicle59" accel="0.8" decel="4.5" sigma="0.5" length="5" minGap="2.5" maxSpeed="16.67" guiShape="passenger" /> 
<vehicle id ="59" depart="59.5" departLane="free" departSpeed="max"> 
<route id="59" edges="-422766323#3 422766323#3 422766356#0 422766364#2 -422766333 -422766366#4 -422766366#3 -422766366#2 -422766360#2 -422766325 422766340#1 -422766360#0 422766370#9 422766370#10 -423596215#2 -423596215#1 423596238#0 423596238#1 423596238#2 -193223413#2 " /> 
</vehicle> 
<vType id="vehicle60" accel="0.8" decel="4.5" sigma="0.5" length="5" minGap="2.5" maxSpeed="16.67" guiShape="passenger" /> 
<vehicle id ="60" depart="60.5" departLane="free" departSpeed="max"> 
<route id="60" edges="-422766323#3 422766323#3 422766356#0 422766364#2 -422766333 -422766366#4 -422766366#3 -422766366#2 -422766360#2 -422766325 422766340#1 -422766360#0 422766370#9 422766370#10 -423596215#2 -423596215#1 423596238#0 423596238#1 423596238#2 -193223413#2 " /> 
</vehicle> 
<vType id="vehicle61" accel="0.8" decel="4.5" sigma="0.5" length="5" minGap="2.5" maxSpeed="16.67" guiShape="passenger" /> 
<vehicle id ="61" depart="61.5" departLane="free" departSpeed="max"> 
<route id="61" edges="-422766323#3 422766323#3 422766356#0 422766364#2 -422766333 -422766366#4 -422766366#3 -422766366#2 -422766360#2 -422766325 422766340#1 -422766360#0 422766370#9 422766370#10 -423596215#2 -423596215#1 423596238#0 423596238#1 423596238#2 -193223413#2 " /> 
</vehicle> 
<vType id="vehicle62" accel="0.8" decel="4.5" sigma="0.5" length="5" minGap="2.5" maxSpeed="16.67" guiShape="passenger" /> 