<routes> 
<vType id="vehicleLEFTRIGHT0" accel="0.8" decel="4.5" sigma="0.5" length="5" minGap="2.5" maxSpeed="16.67" guiShape="passenger" /> 
<vehicle id ="12230" depart="0.5" departLane="free" departSpeed="max"> 
<route id="0" color="red" edges="422766356#0 422766356#1 422766356#2" /> 
</vehicle> 
<vType id="vehicleLEFTRIGHT1" accel="0.8" decel="4.5" sigma="0.5" length="5" minGap="2.5" maxSpeed="16.67" guiShape="passenger" /> 
<vehicle id ="12231" depart="1.5" departLane="free" departSpeed="max"> 
<route id="1" color="red" edges="422766356#0 422766356#1 422766356#2" /> 
</vehicle> 
<vType id="vehicleLEFTRIGHT2" accel="0.8" decel="4.5" sigma="0.5" length="5" minGap="2.5" maxSpeed="16.67" guiShape="passenger" /> 
<vehicle id ="12232" depart="2.5" departLane="free" departSpeed="max"> 
<route id="2" color="red" edges="422766356#0 422766356#1 422766356#2" /> 
</vehicle> 
<vType id="vehicleLEFTRIGHT3" accel="0.8" decel="4.5" sigma="0.5" length="5" minGap="2.5" maxSpeed="16.67" guiShape="passenger" /> 
<vehicle id ="12233" depart="3.5" departLane="free" departSpeed="max"> 
<route id="3" color="red" edges="422766356#0 422766356#1 422766356#2" /> 
</vehicle> 
<vType id="vehicleLEFTRIGHT4" accel="0.8" decel="4.5" sigma="0.5" length="5" minGap="2.5" maxSpeed="16.67" guiShape="passenger" /> 
<vehicle id ="12234" depart="4.5" departLane="free" departSpeed="max"> 
<route id="4" color="red" edges="422766356#0 422766356#1 422766356#2" /> 
</vehicle> 
<vType id="vehicleLEFTRIGHT5" accel="0.8" decel="4.5" sigma="0.5" length="5" minGap="2.5" maxSpeed="16.67" guiShape="passenger" /> 
<vehicle id ="12235" depart="5.5" departLane="free" departSpeed="max"> 
<route id="5" color="red" edges="422766356#0 422766356#1 422766356#2" /> 
</vehicle> 
<vType id="vehicleLEFTRIGHT6" accel="0.8" decel="4.5" sigma="0.5" length="5" minGap="2.5" maxSpeed="16.67" guiShape="passenger" /> 
<vehicle id ="12236" depart="6.5" departLane="free" departSpeed="max"> 
<route id="6" color="red" edges="422766356#0 422766356#1 422766356#2" /> 
</vehicle> 
<vType id="vehicleUPDown0" accel="0.8" decel="4.5" sigma="0.5" length="5" minGap="2.5" maxSpeed="16.67" guiShape="moped" /> 
<vehicle id ="234560" depart="0.5" departLane="free" departSpeed="max"> 
<route id="0" color="red" edges="422766370#0 422766370#1 422766370#2 422766370#3 422766370#4 422766370#5 422766370#6 422766366#0 422766366#1 422766366#2 422766366#3" /> 
</vehicle> 
<vType id="vehicleUPDown1" accel="0.8" decel="4.5" sigma="0.5" length="5" minGap="2.5" maxSpeed="16.67" guiShape="moped" /> 
<vehicle id ="234561" depart="1.5" departLane="free" departSpeed="max"> 
<route id="1" color="red" edges="422766370#0 422766370#1 422766370#2 422766370#3 422766370#4 422766370#5 422766370#6 422766366#0 422766366#1 422766366#2 422766366#3" /> 
</vehicle> 
<vType id="vehicleUPDown2" accel="0.8" decel="4.5" sigma="0.5" length="5" minGap="2.5" maxSpeed="16.67" guiShape="moped" /> 
<vehicle id ="234562" depart="2.5" departLane="free" departSpeed="max"> 
<route id="2" color="red" edges="422766370#0 422766370#1 422766370#2 422766370#3 422766370#4 422766370#5 422766370#6 422766366#0 422766366#1 422766366#2 422766366#3" /> 
</vehicle> 
<vType id="vehicleUPDown3" accel="0.8" decel="4.5" sigma="0.5" length="5" minGap="2.5" maxSpeed="16.67" guiShape="moped" /> 
<vehicle id ="234563" depart="3.5" departLane="free" departSpeed="max"> 
<route id="3" color="red" edges="422766370#0 422766370#1 422766370#2 422766370#3 422766370#4 422766370#5 422766370#6 422766366#0 422766366#1 422766366#2 422766366#3" /> 
</vehicle> 
<vType id="vehicleUPDown4" accel="0.8" decel="4.5" sigma="0.5" length="5" minGap="2.5" maxSpeed="16.67" guiShape="moped" /> 
<vehicle id ="234564" depart="4.5" departLane="free" departSpeed="max"> 
<route id="4" color="red" edges="422766370#0 422766370#1 422766370#2 422766370#3 422766370#4 422766370#5 422766370#6 422766366#0 422766366#1 422766366#2 422766366#3" /> 
</vehicle> 
<vType id="vehicleUPDown5" accel="0.8" decel="4.5" sigma="0.5" length="5" minGap="2.5" maxSpeed="16.67" guiShape="moped" /> 
<vehicle id ="234565" depart="5.5" departLane="free" departSpeed="max"> 
<route id="5" color="red" edges="422766370#0 422766370#1 422766370#2 422766370#3 422766370#4 422766370#5 422766370#6 422766366#0 422766366#1 422766366#2 422766366#3" /> 
</vehicle> 
<vType id="vehicleUPDown6" accel="0.8" decel="4.5" sigma="0.5" length="5" minGap="2.5" maxSpeed="16.67" guiShape="moped" /> 
<vehicle id ="234566" depart="6.5" departLane="free" departSpeed="max"> 
<route id="6" color="red" edges="422766370#0 422766370#1 422766370#2 422766370#3 422766370#4 422766370#5 422766370#6 422766366#0 422766366#1 422766366#2 422766366#3" /> 
</vehicle> 
<vType id="vehicleUPDown7" accel="0.8" decel="4.5" sigma="0.5" length="5" minGap="2.5" maxSpeed="16.67" guiShape="moped" /> 
<vehicle id ="234567" depart="7.5" departLane="free" departSpeed="max"> 
<route id="7" color="red" edges="422766370#0 422766370#1 422766370#2 422766370#3 422766370#4 422766370#5 422766370#6 422766366#0 422766366#1 422766366#2 422766366#3" /> 
</vehicle> 
<vType id="vehicleUPDown8" accel="0.8" decel="4.5" sigma="0.5" length="5" minGap="2.5" maxSpeed="16.67" guiShape="moped" /> 
<vehicle id ="234568" depart="8.5" departLane="free" departSpeed="max"> 
<route id="8" color="red" edges="422766370#0 422766370#1 422766370#2 422766370#3 422766370#4 422766370#5 422766370#6 422766366#0 422766366#1 422766366#2 422766366#3" /> 
</vehicle> 
<vType id="vehicleUPDown9" accel="0.8" decel="4.5" sigma="0.5" length="5" minGap="2.5" maxSpeed="16.67" guiShape="moped" /> 
<vehicle id ="234569" depart="9.5" departLane="free" departSpeed="max"> 
<route id="9" color="red" edges="422766370#0 422766370#1 422766370#2 422766370#3 422766370#4 422766370#5 422766370#6 422766366#0 422766366#1 422766366#2 422766366#3" /> 
</vehicle> 
<vType id="vehicleUPDown10" accel="0.8" decel="4.5" sigma="0.5" length="5" minGap="2.5" maxSpeed="16.67" guiShape="moped" /> 
<vehicle id ="2345610" depart="10.5" departLane="free" departSpeed="max"> 
<route id="10" color="red" edges="422766370#0 422766370#1 422766370#2 422766370#3 422766370#4 422766370#5 422766370#6 422766366#0 422766366#1 422766366#2 422766366#3" /> 
</vehicle> 
<vType id="vehicleUPDown11" accel="0.8" decel="4.5" sigma="0.5" length="5" minGap="2.5" maxSpeed="16.67" guiShape="moped" /> 
<vehicle id ="2345611" depart="11.5" departLane="free" departSpeed="max"> 
<route id="11" color="red" edges="422766370#0 422766370#1 422766370#2 422766370#3 422766370#4 422766370#5 422766370#6 422766366#0 422766366#1 422766366#2 422766366#3" /> 
</vehicle> 
<vType id="vehicleUPDown12" accel="0.8" decel="4.5" sigma="0.5" length="5" minGap="2.5" maxSpeed="16.67" guiShape="moped" /> 
<vehicle id ="2345612" depart="12.5" departLane="free" departSpeed="max"> 
<route id="12" color="red" edges="422766370#0 422766370#1 422766370#2 422766370#3 422766370#4 422766370#5 422766370#6 422766366#0 422766366#1 422766366#2 422766366#3" /> 
</vehicle> 
<vType id="vehicleUPDown13" accel="0.8" decel="4.5" sigma="0.5" length="5" minGap="2.5" maxSpeed="16.67" guiShape="moped" /> 
<vehicle id ="2345613" depart="13.5" departLane="free" departSpeed="max"> 
<route id="13" color="red" edges="422766370#0 422766370#1 422766370#2 422766370#3 422766370#4 422766370#5 422766370#6 422766366#0 422766366#1 422766366#2 422766366#3" /> 
</vehicle> 
<vType id="vehicleUPDown14" accel="0.8" decel="4.5" sigma="0.5" length="5" minGap="2.5" maxSpeed="16.67" guiShape="moped" /> 
<vehicle id ="2345614" depart="14.5" departLane="free" departSpeed="max"> 
<route id="14" color="red" edges="422766370#0 422766370#1 422766370#2 422766370#3 422766370#4 422766370#5 422766370#6 422766366#0 422766366#1 422766366#2 422766366#3" /> 
</vehicle> 
<vType id="vehicleUPDown15" accel="0.8" decel="4.5" sigma="0.5" length="5" minGap="2.5" maxSpeed="16.67" guiShape="moped" /> 
<vehicle id ="2345615" depart="15.5" departLane="free" departSpeed="max"> 
<route id="15" color="red" edges="422766370#0 422766370#1 422766370#2 422766370#3 422766370#4 422766370#5 422766370#6 422766366#0 422766366#1 422766366#2 422766366#3" /> 
</vehicle> 
<vType id="vehicleUPDown16" accel="0.8" decel="4.5" sigma="0.5" length="5" minGap="2.5" maxSpeed="16.67" guiShape="moped" /> 
<vehicle id ="2345616" depart="16.5" departLane="free" departSpeed="max"> 
<route id="16" color="red" edges="422766370#0 422766370#1 422766370#2 422766370#3 422766370#4 422766370#5 422766370#6 422766366#0 422766366#1 422766366#2 422766366#3" /> 
</vehicle> 
<vType id="vehicleUPDown17" accel="0.8" decel="4.5" sigma="0.5" length="5" minGap="2.5" maxSpeed="16.67" guiShape="moped" /> 
<vehicle id ="2345617" depart="17.5" departLane="free" departSpeed="max"> 
<route id="17" color="red" edges="422766370#0 422766370#1 422766370#2 422766370#3 422766370#4 422766370#5 422766370#6 422766366#0 422766366#1 422766366#2 422766366#3" /> 
</vehicle> 
<vType id="vehicleUPDown18" accel="0.8" decel="4.5" sigma="0.5" length="5" minGap="2.5" maxSpeed="16.67" guiShape="moped" /> 
<vehicle id ="2345618" depart="18.5" departLane="free" departSpeed="max"> 
<route id="18" color="red" edges="422766370#0 422766370#1 422766370#2 422766370#3 422766370#4 422766370#5 422766370#6 422766366#0 422766366#1 422766366#2 422766366#3" /> 
</vehicle> 
<vType id="vehicleUPDown19" accel="0.8" decel="4.5" sigma="0.5" length="5" minGap="2.5" maxSpeed="16.67" guiShape="moped" /> 
<vehicle id ="2345619" depart="19.5" departLane="free" departSpeed="max"> 
<route id="19" color="red" edges="422766370#0 422766370#1 422766370#2 422766370#3 422766370#4 422766370#5 422766370#6 422766366#0 422766366#1 422766366#2 422766366#3" /> 
</vehicle> 
<vType id="vehicleUPDown20" accel="0.8" decel="4.5" sigma="0.5" length="5" minGap="2.5" maxSpeed="16.67" guiShape="moped" /> 
<vehicle id ="2345620" depart="20.5" departLane="free" departSpeed="max"> 
<route id="20" color="red" edges="422766370#0 422766370#1 422766370#2 422766370#3 422766370#4 422766370#5 422766370#6 422766366#0 422766366#1 422766366#2 422766366#3" /> 
</vehicle> 
<vType id="vehicleUPDown21" accel="0.8" decel="4.5" sigma="0.5" length="5" minGap="2.5" maxSpeed="16.67" guiShape="moped" /> 
<vehicle id ="2345621" depart="21.5" departLane="free" departSpeed="max"> 
<route id="21" color="red" edges="422766370#0 422766370#1 422766370#2 422766370#3 422766370#4 422766370#5 422766370#6 422766366#0 422766366#1 422766366#2 422766366#3" /> 
</vehicle> 
<vType id="vehicleUPDown22" accel="0.8" decel="4.5" sigma="0.5" length="5" minGap="2.5" maxSpeed="16.67" guiShape="moped" /> 
<vehicle id ="2345622" depart="22.5" departLane="free" departSpeed="max"> 
<route id="22" color="red" edges="422766370#0 422766370#1 422766370#2 422766370#3 422766370#4 422766370#5 422766370#6 422766366#0 422766366#1 422766366#2 422766366#3" /> 
</vehicle> 
<vType id="vehicleUPDown23" accel="0.8" decel="4.5" sigma="0.5" length="5" minGap="2.5" maxSpeed="16.67" guiShape="moped" /> 
<vehicle id ="2345623" depart="23.5" departLane="free" departSpeed="max"> 
<route id="23" color="red" edges="422766370#0 422766370#1 422766370#2 422766370#3 422766370#4 422766370#5 422766370#6 422766366#0 422766366#1 422766366#2 422766366#3" /> 
</vehicle> 
<vType id="vehicleUPDown24" accel="0.8" decel="4.5" sigma="0.5" length="5" minGap="2.5" maxSpeed="16.67" guiShape="moped" /> 
<vehicle id ="2345624" depart="24.5" departLane="free" departSpeed="max"> 
<route id="24" color="red" edges="422766370#0 422766370#1 422766370#2 422766370#3 422766370#4 422766370#5 422766370#6 422766366#0 422766366#1 422766366#2 422766366#3" /> 
</vehicle> 
<vType id="vehicleUPDown25" accel="0.8" decel="4.5" sigma="0.5" length="5" minGap="2.5" maxSpeed="16.67" guiShape="moped" /> 
<vehicle id ="2345625" depart="25.5" departLane="free" departSpeed="max"> 
<route id="25" color="red" edges="422766370#0 422766370#1 422766370#2 422766370#3 422766370#4 422766370#5 422766370#6 422766366#0 422766366#1 422766366#2 422766366#3" /> 
</vehicle> 
<vType id="vehicleUPDown26" accel="0.8" decel="4.5" sigma="0.5" length="5" minGap="2.5" maxSpeed="16.67" guiShape="moped" /> 
<vehicle id ="2345626" depart="26.5" departLane="free" departSpeed="max"> 
<route id="26" color="red" edges="422766370#0 422766370#1 422766370#2 422766370#3 422766370#4 422766370#5 422766370#6 422766366#0 422766366#1 422766366#2 422766366#3" /> 
</vehicle> 
<vType id="vehicleUPDown27" accel="0.8" decel="4.5" sigma="0.5" length="5" minGap="2.5" maxSpeed="16.67" guiShape="moped" /> 
<vehicle id ="2345627" depart="27.5" departLane="free" departSpeed="max"> 
<route id="27" color="red" edges="422766370#0 422766370#1 422766370#2 422766370#3 422766370#4 422766370#5 422766370#6 422766366#0 422766366#1 422766366#2 422766366#3" /> 
</vehicle> 
<vType id="vehicleUPDown28" accel="0.8" decel="4.5" sigma="0.5" length="5" minGap="2.5" maxSpeed="16.67" guiShape="moped" /> 
<vehicle id ="2345628" depart="28.5" departLane="free" departSpeed="max"> 
<route id="28" color="red" edges="422766370#0 422766370#1 422766370#2 422766370#3 422766370#4 422766370#5 422766370#6 422766366#0 422766366#1 422766366#2 422766366#3" /> 
</vehicle> 
<vType id="vehicleUPDown29" accel="0.8" decel="4.5" sigma="0.5" length="5" minGap="2.5" maxSpeed="16.67" guiShape="moped" /> 
<vehicle id ="2345629" depart="29.5" departLane="free" departSpeed="max"> 
<route id="29" color="red" edges="422766370#0 422766370#1 422766370#2 422766370#3 422766370#4 422766370#5 422766370#6 422766366#0 422766366#1 422766366#2 422766366#3" /> 
</vehicle> 
<vType id="vehicleUPDown30" accel="0.8" decel="4.5" sigma="0.5" length="5" minGap="2.5" maxSpeed="16.67" guiShape="moped" /> 
<vehicle id ="2345630" depart="30.5" departLane="free" departSpeed="max"> 
<route id="30" color="red" edges="422766370#0 422766370#1 422766370#2 422766370#3 422766370#4 422766370#5 422766370#6 422766366#0 422766366#1 422766366#2 422766366#3" /> 
</vehicle> 
<vType id="vehicleUPDown31" accel="0.8" decel="4.5" sigma="0.5" length="5" minGap="2.5" maxSpeed="16.67" guiShape="moped" /> 
<vehicle id ="2345631" depart="31.5" departLane="free" departSpeed="max"> 
<route id="31" color="red" edges="422766370#0 422766370#1 422766370#2 422766370#3 422766370#4 422766370#5 422766370#6 422766366#0 422766366#1 422766366#2 422766366#3" /> 
</vehicle> 
<vType id="vehicleUPDown32" accel="0.8" decel="4.5" sigma="0.5" length="5" minGap="2.5" maxSpeed="16.67" guiShape="moped" /> 
<vehicle id ="2345632" depart="32.5" departLane="free" departSpeed="max"> 
<route id="32" color="red" edges="422766370#0 422766370#1 422766370#2 422766370#3 422766370#4 422766370#5 422766370#6 422766366#0 422766366#1 422766366#2 422766366#3" /> 
</vehicle> 
<vType id="vehicleUPDown33" accel="0.8" decel="4.5" sigma="0.5" length="5" minGap="2.5" maxSpeed="16.67" guiShape="moped" /> 
<vehicle id ="2345633" depart="33.5" departLane="free" departSpeed="max"> 
<route id="33" color="red" edges="422766370#0 422766370#1 422766370#2 422766370#3 422766370#4 422766370#5 422766370#6 422766366#0 422766366#1 422766366#2 422766366#3" /> 
</vehicle> 
<vType id="vehicleUPDown34" accel="0.8" decel="4.5" sigma="0.5" length="5" minGap="2.5" maxSpeed="16.67" guiShape="moped" /> 
<vehicle id ="2345634" depart="34.5" departLane="free" departSpeed="max"> 
<route id="34" color="red" edges="422766370#0 422766370#1 422766370#2 422766370#3 422766370#4 422766370#5 422766370#6 422766366#0 422766366#1 422766366#2 422766366#3" /> 
</vehicle> 
<vType id="vehicleUPDown35" accel="0.8" decel="4.5" sigma="0.5" length="5" minGap="2.5" maxSpeed="16.67" guiShape="moped" /> 
<vehicle id ="2345635" depart="35.5" departLane="free" departSpeed="max"> 
<route id="35" color="red" edges="422766370#0 422766370#1 422766370#2 422766370#3 422766370#4 422766370#5 422766370#6 422766366#0 422766366#1 422766366#2 422766366#3" /> 
</vehicle> 
<vType id="vehicleUPDown36" accel="0.8" decel="4.5" sigma="0.5" length="5" minGap="2.5" maxSpeed="16.67" guiShape="moped" /> 
<vehicle id ="2345636" depart="36.5" departLane="free" departSpeed="max"> 
<route id="36" color="red" edges="422766370#0 422766370#1 422766370#2 422766370#3 422766370#4 422766370#5 422766370#6 422766366#0 422766366#1 422766366#2 422766366#3" /> 
</vehicle> 
<vType id="vehicleUPDown37" accel="0.8" decel="4.5" sigma="0.5" length="5" minGap="2.5" maxSpeed="16.67" guiShape="moped" /> 
<vehicle id ="2345637" depart="37.5" departLane="free" departSpeed="max"> 
<route id="37" color="red" edges="422766370#0 422766370#1 422766370#2 422766370#3 422766370#4 422766370#5 422766370#6 422766366#0 422766366#1 422766366#2 422766366#3" /> 
</vehicle> 
<vType id="vehicleUPDown38" accel="0.8" decel="4.5" sigma="0.5" length="5" minGap="2.5" maxSpeed="16.67" guiShape="moped" /> 
<vehicle id ="2345638" depart="38.5" departLane="free" departSpeed="max"> 
<route id="38" color="red" edges="422766370#0 422766370#1 422766370#2 422766370#3 422766370#4 422766370#5 422766370#6 422766366#0 422766366#1 422766366#2 422766366#3" /> 
</vehicle> 
<vType id="vehicleUPDown39" accel="0.8" decel="4.5" sigma="0.5" length="5" minGap="2.5" maxSpeed="16.67" guiShape="moped" /> 
<vehicle id ="2345639" depart="39.5" departLane="free" departSpeed="max"> 
<route id="39" color="red" edges="422766370#0 422766370#1 422766370#2 422766370#3 422766370#4 422766370#5 422766370#6 422766366#0 422766366#1 422766366#2 422766366#3" /> 
</vehicle> 
<vType id="vehicleUPDown40" accel="0.8" decel="4.5" sigma="0.5" length="5" minGap="2.5" maxSpeed="16.67" guiShape="moped" /> 
<vehicle id ="2345640" depart="40.5" departLane="free" departSpeed="max"> 
<route id="40" color="red" edges="422766370#0 422766370#1 422766370#2 422766370#3 422766370#4 422766370#5 422766370#6 422766366#0 422766366#1 422766366#2 422766366#3" /> 
</vehicle> 
<vType id="vehicleUPDown41" accel="0.8" decel="4.5" sigma="0.5" length="5" minGap="2.5" maxSpeed="16.67" guiShape="moped" /> 
<vehicle id ="2345641" depart="41.5" departLane="free" departSpeed="max"> 
<route id="41" color="red" edges="422766370#0 422766370#1 422766370#2 422766370#3 422766370#4 422766370#5 422766370#6 422766366#0 422766366#1 422766366#2 422766366#3" /> 
</vehicle> 
<vType id="vehicleUPDown42" accel="0.8" decel="4.5" sigma="0.5" length="5" minGap="2.5" maxSpeed="16.67" guiShape="moped" /> 
<vehicle id ="2345642" depart="42.5" departLane="free" departSpeed="max"> 
<route id="42" color="red" edges="422766370#0 422766370#1 422766370#2 422766370#3 422766370#4 422766370#5 422766370#6 422766366#0 422766366#1 422766366#2 422766366#3" /> 
</vehicle> 
<vType id="vehicleUPDown43" accel="0.8" decel="4.5" sigma="0.5" length="5" minGap="2.5" maxSpeed="16.67" guiShape="moped" /> 
<vehicle id ="2345643" depart="43.5" departLane="free" departSpeed="max"> 
<route id="43" color="red" edges="422766370#0 422766370#1 422766370#2 422766370#3 422766370#4 422766370#5 422766370#6 422766366#0 422766366#1 422766366#2 422766366#3" /> 
</vehicle> 
<vType id="vehicleUPDown44" accel="0.8" decel="4.5" sigma="0.5" length="5" minGap="2.5" maxSpeed="16.67" guiShape="moped" /> 
<vehicle id ="2345644" depart="44.5" departLane="free" departSpeed="max"> 
<route id="44" color="red" edges="422766370#0 422766370#1 422766370#2 422766370#3 422766370#4 422766370#5 422766370#6 422766366#0 422766366#1 422766366#2 422766366#3" /> 
</vehicle> 
<vType id="vehicleUPDown45" accel="0.8" decel="4.5" sigma="0.5" length="5" minGap="2.5" maxSpeed="16.67" guiShape="moped" /> 
<vehicle id ="2345645" depart="45.5" departLane="free" departSpeed="max"> 
<route id="45" color="red" edges="422766370#0 422766370#1 422766370#2 422766370#3 422766370#4 422766370#5 422766370#6 422766366#0 422766366#1 422766366#2 422766366#3" /> 
</vehicle> 
<vType id="vehicleUPDown46" accel="0.8" decel="4.5" sigma="0.5" length="5" minGap="2.5" maxSpeed="16.67" guiShape="moped" /> 
<vehicle id ="2345646" depart="46.5" departLane="free" departSpeed="max"> 
<route id="46" color="red" edges="422766370#0 422766370#1 422766370#2 422766370#3 422766370#4 422766370#5 422766370#6 422766366#0 422766366#1 422766366#2 422766366#3" /> 
</vehicle> 
<vType id="vehicleUPDown47" accel="0.8" decel="4.5" sigma="0.5" length="5" minGap="2.5" maxSpeed="16.67" guiShape="moped" /> 
<vehicle id ="2345647" depart="47.5" departLane="free" departSpeed="max"> 
<route id="47" color="red" edges="422766370#0 422766370#1 422766370#2 422766370#3 422766370#4 422766370#5 422766370#6 422766366#0 422766366#1 422766366#2 422766366#3" /> 
</vehicle> 
<vType id="vehicleUPDown48" accel="0.8" decel="4.5" sigma="0.5" length="5" minGap="2.5" maxSpeed="16.67" guiShape="moped" /> 
<vehicle id ="2345648" depart="48.5" departLane="free" departSpeed="max"> 
<route id="48" color="red" edges="422766370#0 422766370#1 422766370#2 422766370#3 422766370#4 422766370#5 422766370#6 422766366#0 422766366#1 422766366#2 422766366#3" /> 
</vehicle> 
<vType id="vehicleUPDown49" accel="0.8" decel="4.5" sigma="0.5" length="5" minGap="2.5" maxSpeed="16.67" guiShape="moped" /> 
<vehicle id ="2345649" depart="49.5" departLane="free" departSpeed="max"> 
<route id="49" color="red" edges="422766370#0 422766370#1 422766370#2 422766370#3 422766370#4 422766370#5 422766370#6 422766366#0 422766366#1 422766366#2 422766366#3" /> 
</vehicle> 
<vType id="vehicle0" accel="0.8" decel="4.5" sigma="0.5" length="5" minGap="2.5" maxSpeed="16.67" guiShape="delivery" /> 
<vehicle id ="0" depart="0" departLane="free" departSpeed="max"> 
<route id="0" color="blue" edges="-422766323#3 422766323#3 422766356#0 422766356#1 422766356#2 422766356#3 422766356#4 423596238#2 -193223413#2 " /> 
</vehicle> 
<vType id="vehicle1" accel="0.8" decel="4.5" sigma="0.5" length="5" minGap="2.5" maxSpeed="16.67" guiShape="delivery" /> 
<vehicle id ="1" depart="1" departLane="free" departSpeed="max"> 
<route id="1" color="blue" edges="-422766323#3 422766323#3 422766356#0 422766356#1 422766356#2 422766356#3 422766356#4 423596238#2 -193223413#2 " /> 
</vehicle> 
<vType id="vehicle2" accel="0.8" decel="4.5" sigma="0.5" length="5" minGap="2.5" maxSpeed="16.67" guiShape="delivery" /> 
<vehicle id ="2" depart="2" departLane="free" departSpeed="max"> 
<route id="2" color="blue" edges="-422766323#3 422766323#3 422766356#0 422766356#1 422766356#2 422766356#3 422766356#4 423596238#2 -193223413#2 " /> 
</vehicle> 
<vType id="vehicle3" accel="0.8" decel="4.5" sigma="0.5" length="5" minGap="2.5" maxSpeed="16.67" guiShape="delivery" /> 
<vehicle id ="3" depart="3" departLane="free" departSpeed="max"> 
<route id="3" color="blue" edges="-422766323#3 422766323#3 422766356#0 422766356#1 422766356#2 422766356#3 422766356#4 423596238#2 -193223413#2 " /> 
</vehicle> 
<vType id="vehicle4" accel="0.8" decel="4.5" sigma="0.5" length="5" minGap="2.5" maxSpeed="16.67" guiShape="delivery" /> 
<vehicle id ="4" depart="4" departLane="free" departSpeed="max"> 
<route id="4" color="blue" edges="-422766323#3 422766323#3 422766356#0 422766356#1 422766356#2 422766356#3 422766356#4 423596238#2 -193223413#2 " /> 
</vehicle> 
<vType id="vehicle5" accel="0.8" decel="4.5" sigma="0.5" length="5" minGap="2.5" maxSpeed="16.67" guiShape="delivery" /> 
<vehicle id ="5" depart="5" departLane="free" departSpeed="max"> 
<route id="5" color="blue" edges="-422766323#3 422766323#3 422766356#0 422766356#1 422766356#2 422766356#3 422766356#4 423596238#2 -193223413#2 " /> 
</vehicle> 
<vType id="vehicle6" accel="0.8" decel="4.5" sigma="0.5" length="5" minGap="2.5" maxSpeed="16.67" guiShape="delivery" /> 
<vehicle id ="6" depart="6" departLane="free" departSpeed="max"> 
<route id="6" color="blue" edges="-422766323#3 422766323#3 422766356#0 422766356#1 422766356#2 422766356#3 422766356#4 423596238#2 -193223413#2 " /> 
</vehicle> 
<vType id="vehicle7" accel="0.8" decel="4.5" sigma="0.5" length="5" minGap="2.5" maxSpeed="16.67" guiShape="delivery" /> 
<vehicle id ="7" depart="7" departLane="free" departSpeed="max"> 
<route id="7" color="blue" edges="-422766323#3 422766323#3 422766356#0 422766356#1 422766356#2 422766356#3 422766356#4 423596238#2 -193223413#2 " /> 
</vehicle> 
<vType id="vehicle8" accel="0.8" decel="4.5" sigma="0.5" length="5" minGap="2.5" maxSpeed="16.67" guiShape="delivery" /> 
<vehicle id ="8" depart="8" departLane="free" departSpeed="max"> 
<route id="8" color="blue" edges="-422766323#3 422766323#3 422766356#0 422766356#1 422766356#2 422766356#3 422766356#4 423596238#2 -193223413#2 " /> 
</vehicle> 
<vType id="vehicle9" accel="0.8" decel="4.5" sigma="0.5" length="5" minGap="2.5" maxSpeed="16.67" guiShape="delivery" /> 
<vehicle id ="9" depart="9" departLane="free" departSpeed="max"> 
<route id="9" color="blue" edges="-422766323#3 422766323#3 422766356#0 422766356#1 422766356#2 422766356#3 422766356#4 423596238#2 -193223413#2 " /> 
</vehicle> 
<vType id="vehicle10" accel="0.8" decel="4.5" sigma="0.5" length="5" minGap="2.5" maxSpeed="16.67" guiShape="delivery" /> 
<vehicle id ="10" depart="10" departLane="free" departSpeed="max"> 
<route id="10" color="blue" edges="-422766323#3 422766323#3 422766356#0 422766356#1 422766356#2 422766356#3 422766356#4 423596238#2 -193223413#2 " /> 
</vehicle> 
<vType id="vehicle11" accel="0.8" decel="4.5" sigma="0.5" length="5" minGap="2.5" maxSpeed="16.67" guiShape="delivery" /> 
<vehicle id ="11" depart="11" departLane="free" departSpeed="max"> 
<route id="11" color="blue" edges="-422766323#3 422766323#3 422766356#0 422766356#1 422766356#2 422766356#3 422766356#4 423596238#2 -193223413#2 " /> 
</vehicle> 
<vType id="vehicle12" accel="0.8" decel="4.5" sigma="0.5" length="5" minGap="2.5" maxSpeed="16.67" guiShape="delivery" /> 
<vehicle id ="12" depart="12" departLane="free" departSpeed="max"> 
<route id="12" color="blue" edges="-422766323#3 422766323#3 422766356#0 422766356#1 422766356#2 422766356#3 422766356#4 423596238#2 -193223413#2 " /> 
</vehicle> 
<vType id="vehicle13" accel="0.8" decel="4.5" sigma="0.5" length="5" minGap="2.5" maxSpeed="16.67" guiShape="delivery" /> 
<vehicle id ="13" depart="13" departLane="free" departSpeed="max"> 
<route id="13" color="blue" edges="-422766323#3 422766323#3 422766356#0 422766356#1 422766356#2 422766356#3 422766356#4 423596238#2 -193223413#2 " /> 
</vehicle> 
<vType id="vehicle14" accel="0.8" decel="4.5" sigma="0.5" length="5" minGap="2.5" maxSpeed="16.67" guiShape="delivery" /> 
<vehicle id ="14" depart="14" departLane="free" departSpeed="max"> 
<route id="14" color="blue" edges="-422766323#3 422766323#3 422766356#0 422766356#1 422766356#2 422766356#3 422766356#4 423596238#2 -193223413#2 " /> 
</vehicle> 
<vType id="vehicle15" accel="0.8" decel="4.5" sigma="0.5" length="5" minGap="2.5" maxSpeed="16.67" guiShape="delivery" /> 
<vehicle id ="15" depart="15" departLane="free" departSpeed="max"> 
<route id="15" color="blue" edges="-422766323#3 422766323#3 422766356#0 422766356#1 422766356#2 422766356#3 422766356#4 423596238#2 -193223413#2 " /> 
</vehicle> 
<vType id="vehicle16" accel="0.8" decel="4.5" sigma="0.5" length="5" minGap="2.5" maxSpeed="16.67" guiShape="delivery" /> 
<vehicle id ="16" depart="16" departLane="free" departSpeed="max"> 
<route id="16" color="blue" edges="-422766323#3 422766323#3 422766356#0 422766356#1 422766356#2 422766356#3 422766356#4 423596238#2 -193223413#2 " /> 
</vehicle> 
<vType id="vehicle17" accel="0.8" decel="4.5" sigma="0.5" length="5" minGap="2.5" maxSpeed="16.67" guiShape="delivery" /> 
<vehicle id ="17" depart="17" departLane="free" departSpeed="max"> 
<route id="17" color="blue" edges="-422766323#3 422766323#3 422766356#0 422766356#1 422766356#2 422766356#3 422766356#4 423596238#2 -193223413#2 " /> 
</vehicle> 
<vType id="vehicle18" accel="0.8" decel="4.5" sigma="0.5" length="5" minGap="2.5" maxSpeed="16.67" guiShape="delivery" /> 
<vehicle id ="18" depart="18" departLane="free" departSpeed="max"> 
<route id="18" color="blue" edges="-422766323#3 422766323#3 422766356#0 422766356#1 422766356#2 422766356#3 422766356#4 423596238#2 -193223413#2 " /> 
</vehicle> 
<vType id="vehicle19" accel="0.8" decel="4.5" sigma="0.5" length="5" minGap="2.5" maxSpeed="16.67" guiShape="delivery" /> 
<vehicle id ="19" depart="19" departLane="free" departSpeed="max"> 
<route id="19" color="blue" edges="-422766323#3 422766323#3 422766356#0 422766356#1 422766356#2 422766356#3 422766356#4 423596238#2 -193223413#2 " /> 
</vehicle> 
<vType id="vehicle20" accel="0.8" decel="4.5" sigma="0.5" length="5" minGap="2.5" maxSpeed="16.67" guiShape="delivery" /> 
<vehicle id ="20" depart="20" departLane="free" departSpeed="max"> 
<route id="20" color="blue" edges="-422766323#3 422766323#3 422766356#0 422766356#1 422766356#2 422766356#3 422766356#4 423596238#2 -193223413#2 " /> 
</vehicle> 
<vType id="vehicle21" accel="0.8" decel="4.5" sigma="0.5" length="5" minGap="2.5" maxSpeed="16.67" guiShape="delivery" /> 
<vehicle id ="21" depart="21" departLane="free" departSpeed="max"> 
<route id="21" color="blue" edges="-422766323#3 422766323#3 422766356#0 422766356#1 422766356#2 422766356#3 422766356#4 423596238#2 -193223413#2 " /> 
</vehicle> 
<vType id="vehicle22" accel="0.8" decel="4.5" sigma="0.5" length="5" minGap="2.5" maxSpeed="16.67" guiShape="delivery" /> 
<vehicle id ="22" depart="22" departLane="free" departSpeed="max"> 
<route id="22" color="blue" edges="-422766323#3 422766323#3 422766356#0 422766356#1 422766356#2 422766356#3 422766356#4 423596238#2 -193223413#2 " /> 
</vehicle> 
<vType id="vehicle23" accel="0.8" decel="4.5" sigma="0.5" length="5" minGap="2.5" maxSpeed="16.67" guiShape="delivery" /> 
<vehicle id ="23" depart="23" departLane="free" departSpeed="max"> 
<route id="23" color="blue" edges="-422766323#3 422766323#3 422766356#0 422766356#1 422766356#2 422766356#3 422766356#4 423596238#2 -193223413#2 " /> 
</vehicle> 
<vType id="vehicle24" accel="0.8" decel="4.5" sigma="0.5" length="5" minGap="2.5" maxSpeed="16.67" guiShape="delivery" /> 
<vehicle id ="24" depart="24" departLane="free" departSpeed="max"> 
<route id="24" color="blue" edges="-422766323#3 422766323#3 422766356#0 422766356#1 422766356#2 422766356#3 422766356#4 423596238#2 -193223413#2 " /> 