<routes>
        <vType id="vehicle1" accel="0.8" decel="4.5" sigma="0.5" length="5" minGap="2.5" maxSpeed="16.67" guiShape="passenger"/>
        <vehicle id ="12112" depart="0.79" departLane="free" departSpeed="max">
        <route id="1" edges="-422766323#3 422766323#3 422766356#0 422766364#2 -422766333 -422766366#4 -422766344#1 -422766344#0 -422766355#1 422766356#3 422766356#4 423596238#2 -193223413#2 " />
        </vehicle>
        </routes>
