<?xml version="1.0" encoding="UTF-8"?>

<!-- generated on 11/17/18 10:58:53 by SUMO netconvert Version 0.32.0
<?xml version="1.0" encoding="UTF-8"?>

<configuration xmlns:xsi="http://www.w3.org/2001/XMLSchema-instance" xsi:noNamespaceSchemaLocation="http://sumo.dlr.de/xsd/netconvertConfiguration.xsd">

    <input>
        <osm-files value="map.osm"/>
    </input>

    <output>
        <output-file value="test.net.xml"/>
    </output>

    <projection>
        <proj.utm value="true"/>
    </projection>

</configuration>
-->

<net version="0.27" xmlns:xsi="http://www.w3.org/2001/XMLSchema-instance" xsi:noNamespaceSchemaLocation="http://sumo.dlr.de/xsd/net_file.xsd">

    <location netOffset="-585487.52,-2818277.83" convBoundary="0.00,0.00,1947.15,2741.36" origBoundary="81.850610,25.479080,81.869966,25.503812" projParameter="+proj=utm +zone=44 +ellps=WGS84 +datum=WGS84 +units=m +no_defs"/>

    <type id="highway.bridleway" priority="1" numLanes="1" speed="2.78" allow="pedestrian" oneway="1" width="2.00"/>
    <type id="highway.bus_guideway" priority="1" numLanes="1" speed="8.33" allow="bus" oneway="1"/>
    <type id="highway.cycleway" priority="1" numLanes="1" speed="5.56" allow="bicycle" oneway="0" width="1.00"/>
    <type id="highway.footway" priority="1" numLanes="1" speed="2.78" allow="pedestrian" oneway="1" width="2.00"/>
    <type id="highway.ford" priority="1" numLanes="1" speed="2.78" allow="army" oneway="0"/>
    <type id="highway.living_street" priority="3" numLanes="1" speed="2.78" disallow="tram rail_urban rail rail_electric ship" oneway="0"/>
    <type id="highway.motorway" priority="13" numLanes="2" speed="44.44" allow="private emergency authority army vip passenger hov taxi bus coach delivery truck trailer motorcycle evehicle custom1 custom2" oneway="1"/>
    <type id="highway.motorway_link" priority="12" numLanes="1" speed="22.22" allow="private emergency authority army vip passenger hov taxi bus coach delivery truck trailer motorcycle evehicle custom1 custom2" oneway="1"/>
    <type id="highway.path" priority="1" numLanes="1" speed="2.78" allow="bicycle pedestrian" oneway="1" width="2.00"/>
    <type id="highway.pedestrian" priority="1" numLanes="1" speed="2.78" allow="pedestrian" oneway="1" width="2.00"/>
    <type id="highway.primary" priority="9" numLanes="2" speed="27.78" disallow="tram rail_urban rail rail_electric ship" oneway="0"/>
    <type id="highway.primary_link" priority="8" numLanes="1" speed="22.22" disallow="tram rail_urban rail rail_electric ship" oneway="0"/>
    <type id="highway.raceway" priority="14" numLanes="2" speed="83.33" allow="vip" oneway="0"/>
    <type id="highway.residential" priority="4" numLanes="1" speed="13.89" disallow="tram rail_urban rail rail_electric ship" oneway="0"/>
    <type id="highway.secondary" priority="7" numLanes="2" speed="27.78" disallow="tram rail_urban rail rail_electric ship" oneway="0"/>
    <type id="highway.secondary_link" priority="6" numLanes="1" speed="22.22" disallow="tram rail_urban rail rail_electric ship" oneway="0"/>
    <type id="highway.service" priority="2" numLanes="1" speed="5.56" allow="delivery bicycle pedestrian" oneway="0"/>
    <type id="highway.services" priority="1" numLanes="1" speed="8.33" disallow="tram rail_urban rail rail_electric ship" oneway="0"/>
    <type id="highway.stairs" priority="1" numLanes="1" speed="1.39" allow="pedestrian" oneway="1" width="2.00"/>
    <type id="highway.step" priority="1" numLanes="1" speed="1.39" allow="pedestrian" oneway="1" width="2.00"/>
    <type id="highway.steps" priority="1" numLanes="1" speed="1.39" allow="pedestrian" oneway="1" width="2.00"/>
    <type id="highway.tertiary" priority="6" numLanes="1" speed="22.22" disallow="tram rail_urban rail rail_electric ship" oneway="0"/>
    <type id="highway.tertiary_link" priority="5" numLanes="1" speed="22.22" disallow="tram rail_urban rail rail_electric ship" oneway="0"/>
    <type id="highway.track" priority="1" numLanes="1" speed="5.56" disallow="tram rail_urban rail rail_electric ship" oneway="0"/>
    <type id="highway.trunk" priority="11" numLanes="2" speed="27.78" disallow="tram rail_urban rail rail_electric bicycle pedestrian ship" oneway="0"/>
    <type id="highway.trunk_link" priority="10" numLanes="1" speed="22.22" disallow="tram rail_urban rail rail_electric bicycle pedestrian ship" oneway="0"/>
    <type id="highway.unclassified" priority="5" numLanes="1" speed="13.89" disallow="tram rail_urban rail rail_electric ship" oneway="0"/>
    <type id="highway.unsurfaced" priority="1" numLanes="1" speed="8.33" disallow="tram rail_urban rail rail_electric ship" oneway="0"/>
    <type id="railway.light_rail" priority="15" numLanes="1" speed="27.78" allow="rail_urban" oneway="1"/>
    <type id="railway.preserved" priority="15" numLanes="1" speed="27.78" allow="rail" oneway="1"/>
    <type id="railway.rail" priority="15" numLanes="1" speed="83.33" allow="rail rail_electric" oneway="1"/>
    <type id="railway.subway" priority="15" numLanes="1" speed="27.78" allow="rail_urban" oneway="1"/>
    <type id="railway.tram" priority="15" numLanes="1" speed="13.89" allow="tram" oneway="1"/>

    <edge id=":2355932813_0" function="internal">
        <lane id=":2355932813_0_0" index="0" disallow="tram rail_urban rail rail_electric bicycle pedestrian ship" speed="27.78" length="9.98" shape="1263.07,2170.09 1255.03,2164.18"/>
        <lane id=":2355932813_0_1" index="1" disallow="tram rail_urban rail rail_electric bicycle pedestrian ship" speed="27.78" length="9.98" shape="1265.03,2167.43 1256.99,2161.52"/>
    </edge>
    <edge id=":2355932813_2" function="internal">
        <lane id=":2355932813_2_0" index="0" disallow="tram rail_urban rail rail_electric ship" speed="25.00" length="5.59" shape="1265.03,2167.43 1262.16,2164.44 1261.89,2163.02"/>
    </edge>
    <edge id=":2355932813_3" function="internal">
        <lane id=":2355932813_3_0" index="0" disallow="tram rail_urban rail rail_electric bicycle pedestrian ship" speed="27.78" length="2.41" shape="1265.03,2167.43 1264.52,2166.03 1264.68,2165.12"/>
    </edge>
    <edge id=":2355932813_11" function="internal">
        <lane id=":2355932813_11_0" index="0" speed="25.00" length="10.42" shape="1261.89,2163.02 1261.59,2161.37 1263.31,2158.22 1267.33,2154.99"/>
    </edge>
    <edge id=":2355932813_12" function="internal">
        <lane id=":2355932813_12_0" index="0" speed="27.78" length="2.41" shape="1264.68,2165.12 1265.50,2164.70 1266.98,2164.77"/>
    </edge>
    <edge id=":2355932813_4" function="internal">
        <lane id=":2355932813_4_0" index="0" disallow="tram rail_urban rail rail_electric bicycle pedestrian ship" speed="25.00" length="5.53" shape="1269.09,2157.78 1267.86,2158.82 1267.43,2159.89 1267.79,2160.99 1268.94,2162.11"/>
    </edge>
    <edge id=":2355932813_5" function="internal">
        <lane id=":2355932813_5_0" index="0" disallow="tram rail_urban rail rail_electric bicycle pedestrian ship" speed="25.00" length="13.15" shape="1269.09,2157.78 1264.87,2160.21 1261.45,2161.64 1258.82,2162.07 1256.99,2161.52"/>
    </edge>
    <edge id=":2355932813_6" function="internal">
        <lane id=":2355932813_6_0" index="0" disallow="tram rail_urban rail rail_electric ship" speed="22.22" length="4.82" shape="1269.09,2157.78 1267.60,2157.75 1266.81,2157.27 1266.72,2156.35 1267.33,2154.99"/>
    </edge>
    <edge id=":2355932813_7" function="internal">
        <lane id=":2355932813_7_0" index="0" disallow="tram rail_urban rail rail_electric ship" speed="25.00" length="6.90" shape="1260.90,2156.20 1262.08,2156.70 1263.55,2156.67 1265.30,2156.10 1267.33,2154.99"/>
    </edge>
    <edge id=":2355932813_8" function="internal">
        <lane id=":2355932813_8_0" index="0" disallow="tram rail_urban rail rail_electric bicycle pedestrian ship" speed="27.78" length="9.98" shape="1260.90,2156.20 1268.94,2162.11"/>
        <lane id=":2355932813_8_1" index="1" disallow="tram rail_urban rail rail_electric bicycle pedestrian ship" speed="27.78" length="9.98" shape="1258.94,2158.86 1266.98,2164.77"/>
    </edge>
    <edge id=":2355932813_10" function="internal">
        <lane id=":2355932813_10_0" index="0" disallow="tram rail_urban rail rail_electric bicycle pedestrian ship" speed="27.78" length="2.41" shape="1258.94,2158.86 1259.45,2160.26 1259.30,2161.17"/>
    </edge>
    <edge id=":2355932813_13" function="internal">
        <lane id=":2355932813_13_0" index="0" speed="27.78" length="2.41" shape="1259.30,2161.17 1258.48,2161.59 1256.99,2161.52"/>
    </edge>
    <edge id=":312884451_0" function="internal">
        <lane id=":312884451_0_0" index="0" disallow="tram rail_urban rail rail_electric bicycle pedestrian ship" speed="27.78" length="11.67" shape="1187.27,2092.34 1185.57,2089.20 1184.49,2087.00 1183.62,2084.72 1182.58,2081.31"/>
        <lane id=":312884451_0_1" index="1" disallow="tram rail_urban rail rail_electric bicycle pedestrian ship" speed="27.78" length="11.67" shape="1190.18,2090.77 1188.58,2087.81 1187.55,2085.75 1186.73,2083.60 1185.75,2080.39"/>
    </edge>
    <edge id=":312884451_2" function="internal">
        <lane id=":312884451_2_0" index="0" disallow="tram rail_urban rail rail_electric ship" speed="20.84" length="5.13" shape="1190.18,2090.77 1189.11,2087.37 1189.50,2085.85"/>
    </edge>
    <edge id=":312884451_3" function="internal">
        <lane id=":312884451_3_0" index="0" disallow="tram rail_urban rail rail_electric bicycle pedestrian ship" speed="27.78" length="2.41" shape="1190.18,2090.77 1190.32,2089.29 1190.85,2088.53"/>
    </edge>
    <edge id=":312884451_11" function="internal">
        <lane id=":312884451_11_0" index="0" speed="20.84" length="9.55" shape="1189.50,2085.85 1189.85,2084.52 1192.41,2082.20 1196.78,2080.43"/>
    </edge>
    <edge id=":312884451_12" function="internal">
        <lane id=":312884451_12_0" index="0" speed="27.78" length="2.41" shape="1190.85,2088.53 1191.77,2088.50 1193.08,2089.20"/>
    </edge>
    <edge id=":312884451_4" function="internal">
        <lane id=":312884451_4_0" index="0" disallow="tram rail_urban rail rail_electric bicycle pedestrian ship" speed="20.84" length="5.28" shape="1197.69,2083.60 1196.32,2084.21 1195.58,2085.09 1195.47,2086.23 1195.99,2087.63"/>
    </edge>
    <edge id=":312884451_5" function="internal">
        <lane id=":312884451_5_0" index="0" disallow="tram rail_urban rail rail_electric bicycle pedestrian ship" speed="20.84" length="13.84" shape="1197.69,2083.60 1193.13,2084.49 1189.62,2084.25 1187.16,2082.88 1185.75,2080.39"/>
    </edge>
    <edge id=":312884451_6" function="internal">
        <lane id=":312884451_6_0" index="0" disallow="tram rail_urban rail rail_electric ship" speed="13.89" length="4.82" shape="1197.69,2083.60 1196.27,2083.15 1195.65,2082.47 1195.82,2081.56 1196.78,2080.43"/>
    </edge>
    <edge id=":312884451_7" function="internal">
        <lane id=":312884451_7_0" index="0" disallow="tram rail_urban rail rail_electric ship" speed="20.84" length="5.73" shape="1192.09,2078.55 1192.70,2079.78 1193.69,2080.51 1195.05,2080.72 1196.78,2080.43"/>
    </edge>
    <edge id=":312884451_8" function="internal">
        <lane id=":312884451_8_0" index="0" disallow="tram rail_urban rail rail_electric bicycle pedestrian ship" speed="27.78" length="10.27" shape="1192.09,2078.55 1192.95,2081.36 1193.67,2083.24 1194.58,2085.05 1195.99,2087.63"/>
        <lane id=":312884451_8_1" index="1" disallow="tram rail_urban rail rail_electric bicycle pedestrian ship" speed="27.78" length="10.27" shape="1188.92,2079.47 1189.84,2082.48 1190.61,2084.50 1191.58,2086.43 1193.08,2089.20"/>
    </edge>
    <edge id=":312884451_10" function="internal">
        <lane id=":312884451_10_0" index="0" disallow="tram rail_urban rail rail_electric bicycle pedestrian ship" speed="27.78" length="2.41" shape="1188.92,2079.47 1188.47,2080.89 1187.79,2081.52"/>
    </edge>
    <edge id=":312884451_13" function="internal">
        <lane id=":312884451_13_0" index="0" speed="27.78" length="2.41" shape="1187.79,2081.52 1186.88,2081.35 1185.75,2080.39"/>
    </edge>
    <edge id=":312884652_0" function="internal">
        <lane id=":312884652_0_0" index="0" disallow="tram rail_urban rail rail_electric bicycle pedestrian ship" speed="27.78" length="4.82" shape="1540.58,2741.35 1539.76,2742.59 1538.94,2743.01 1538.11,2742.60 1537.28,2741.36"/>
    </edge>
    <edge id=":316489816_0" function="internal">
        <lane id=":316489816_0_0" index="0" disallow="tram rail_urban rail rail_electric bicycle pedestrian ship" speed="27.78" length="4.82" shape="1169.19,0.77 1169.34,-0.71 1169.87,-1.46 1170.79,-1.48 1172.10,-0.77"/>
    </edge>
    <edge id=":316491099_0" function="internal">
        <lane id=":316491099_0_0" index="0" disallow="tram rail_urban rail rail_electric ship" speed="13.89" length="4.82" shape="438.02,1365.86 438.36,1364.41 438.99,1363.74 439.91,1363.84 441.11,1364.71"/>
    </edge>
    <edge id=":316675276_0" function="internal">
        <lane id=":316675276_0_0" index="0" disallow="tram rail_urban rail rail_electric bicycle pedestrian ship" speed="27.78" length="24.82" shape="1202.67,104.18 1197.06,80.00"/>
        <lane id=":316675276_0_1" index="1" disallow="tram rail_urban rail rail_electric bicycle pedestrian ship" speed="27.78" length="24.82" shape="1205.88,103.43 1200.28,79.26"/>
    </edge>
    <edge id=":316675276_2" function="internal">
        <lane id=":316675276_2_0" index="0" disallow="tram rail_urban rail rail_electric ship" speed="25.00" length="18.88" shape="1205.88,103.43 1202.93,87.01 1203.32,84.85"/>
    </edge>
    <edge id=":316675276_3" function="internal">
        <lane id=":316675276_3_0" index="0" disallow="tram rail_urban rail rail_electric bicycle pedestrian ship" speed="27.78" length="2.41" shape="1205.88,103.43 1206.41,102.04 1207.12,101.45"/>
    </edge>
    <edge id=":316675276_11" function="internal">
        <lane id=":316675276_11_0" index="0" speed="25.00" length="27.62" shape="1203.32,84.85 1204.05,80.78 1209.25,84.76 1218.52,98.94"/>
    </edge>
    <edge id=":316675276_12" function="internal">
        <lane id=":316675276_12_0" index="0" speed="27.78" length="2.41" shape="1207.12,101.45 1208.01,101.67 1209.10,102.69"/>
    </edge>
    <edge id=":316675276_4" function="internal">
        <lane id=":316675276_4_0" index="0" disallow="tram rail_urban rail rail_electric bicycle pedestrian ship" speed="25.00" length="12.54" shape="1215.67,100.61 1213.19,96.81 1211.80,95.77 1211.51,97.48 1212.31,101.94"/>
    </edge>
    <edge id=":316675276_5" function="internal">
        <lane id=":316675276_5_0" index="0" disallow="tram rail_urban rail rail_electric bicycle pedestrian ship" speed="25.00" length="26.57" shape="1215.67,100.61 1212.51,96.82 1207.87,91.97 1203.28,86.10 1200.28,79.26"/>
    </edge>
    <edge id=":316675276_6" function="internal">
        <lane id=":316675276_6_0" index="0" disallow="tram rail_urban rail rail_electric ship" speed="22.22" length="4.82" shape="1215.67,100.61 1215.76,99.12 1216.26,98.35 1217.18,98.29 1218.52,98.94"/>
    </edge>
    <edge id=":316675276_7" function="internal">
        <lane id=":316675276_7_0" index="0" disallow="tram rail_urban rail rail_electric ship" speed="25.00" length="24.39" shape="1206.71,77.77 1209.15,84.58 1212.51,90.39 1215.92,95.18 1218.52,98.94"/>
    </edge>
    <edge id=":316675276_8" function="internal">
        <lane id=":316675276_8_0" index="0" disallow="tram rail_urban rail rail_electric bicycle pedestrian ship" speed="27.78" length="24.82" shape="1206.71,77.77 1212.31,101.94"/>
        <lane id=":316675276_8_1" index="1" disallow="tram rail_urban rail rail_electric bicycle pedestrian ship" speed="27.78" length="24.82" shape="1203.49,78.51 1209.10,102.69"/>
    </edge>
    <edge id=":316675276_10" function="internal">
        <lane id=":316675276_10_0" index="0" disallow="tram rail_urban rail rail_electric bicycle pedestrian ship" speed="27.78" length="2.41" shape="1203.49,78.51 1202.97,79.91 1202.26,80.49"/>
    </edge>
    <edge id=":316675276_13" function="internal">
        <lane id=":316675276_13_0" index="0" speed="27.78" length="2.41" shape="1202.26,80.49 1201.36,80.28 1200.28,79.26"/>
    </edge>
    <edge id=":4224961212_0" function="internal">
        <lane id=":4224961212_0_0" index="0" disallow="tram rail_urban rail rail_electric ship" speed="13.89" length="4.92" shape="385.70,1681.80 385.01,1680.65 384.12,1679.96 383.02,1679.75 381.71,1680.00"/>
    </edge>
    <edge id=":4224961212_1" function="internal">
        <lane id=":4224961212_1_0" index="0" disallow="tram rail_urban rail rail_electric ship" speed="13.89" length="9.90" shape="385.70,1681.80 385.01,1679.19 385.26,1676.92 386.45,1674.99 388.58,1673.41"/>
    </edge>
    <edge id=":4224961212_2" function="internal">
        <lane id=":4224961212_2_0" index="0" disallow="tram rail_urban rail rail_electric ship" speed="13.89" length="4.82" shape="385.70,1681.80 385.98,1680.34 386.58,1679.64 387.50,1679.70 388.74,1680.52"/>
    </edge>
    <edge id=":4224961212_3" function="internal">
        <lane id=":4224961212_3_0" index="0" disallow="tram rail_urban rail rail_electric ship" speed="13.89" length="4.96" shape="390.15,1676.31 389.10,1677.10 388.51,1678.06 388.39,1679.21 388.74,1680.52"/>
    </edge>
    <edge id=":4224961212_4" function="internal">
        <lane id=":4224961212_4_0" index="0" disallow="tram rail_urban rail rail_electric ship" speed="13.89" length="9.24" shape="390.15,1676.31 387.74,1677.60 386.05,1678.42 384.30,1679.10 381.71,1680.00"/>
    </edge>
    <edge id=":4224961212_5" function="internal">
        <lane id=":4224961212_5_0" index="0" disallow="tram rail_urban rail rail_electric ship" speed="13.89" length="2.41" shape="390.15,1676.31 388.67,1676.17 387.92,1675.64"/>
    </edge>
    <edge id=":4224961212_9" function="internal">
        <lane id=":4224961212_9_0" index="0" speed="13.89" length="2.41" shape="387.92,1675.64 387.89,1674.72 388.58,1673.41"/>
    </edge>
    <edge id=":4224961212_6" function="internal">
        <lane id=":4224961212_6_0" index="0" disallow="tram rail_urban rail rail_electric ship" speed="13.89" length="8.68" shape="380.64,1676.87 383.08,1676.03 384.72,1675.39 386.31,1674.62 388.58,1673.41"/>
    </edge>
    <edge id=":4224961212_7" function="internal">
        <lane id=":4224961212_7_0" index="0" disallow="tram rail_urban rail rail_electric ship" speed="13.89" length="4.99" shape="380.64,1676.87 383.31,1676.37 385.54,1676.81"/>
    </edge>
    <edge id=":4224961212_8" function="internal">
        <lane id=":4224961212_8_0" index="0" disallow="tram rail_urban rail rail_electric ship" speed="13.89" length="2.41" shape="380.64,1676.87 382.08,1677.26 382.74,1677.90"/>
    </edge>
    <edge id=":4224961212_10" function="internal">
        <lane id=":4224961212_10_0" index="0" speed="13.89" length="4.99" shape="385.54,1676.81 387.36,1678.19 388.74,1680.52"/>
    </edge>
    <edge id=":4224961212_11" function="internal">
        <lane id=":4224961212_11_0" index="0" speed="13.89" length="2.41" shape="382.74,1677.90 382.61,1678.82 381.71,1680.00"/>
    </edge>
    <edge id=":4224961234_0" function="internal">
        <lane id=":4224961234_0_0" index="0" disallow="tram rail_urban rail rail_electric ship" speed="13.89" length="4.82" shape="1506.50,1923.00 1507.98,1923.15 1508.74,1923.68 1508.76,1924.60 1508.06,1925.91"/>
    </edge>
    <edge id=":4224961241_0" function="internal">
        <lane id=":4224961241_0_0" index="0" disallow="tram rail_urban rail rail_electric ship" speed="13.89" length="10.27" shape="475.91,1951.97 473.03,1952.83 470.97,1953.35 468.88,1953.74 465.90,1954.18"/>
    </edge>
    <edge id=":4224961241_1" function="internal">
        <lane id=":4224961241_1_0" index="0" disallow="tram rail_urban rail rail_electric ship" speed="13.89" length="5.38" shape="475.91,1951.97 473.05,1952.39 470.75,1951.75 470.68,1951.68"/>
    </edge>
    <edge id=":4224961241_2" function="internal">
        <lane id=":4224961241_2_0" index="0" disallow="tram rail_urban rail rail_electric ship" speed="13.89" length="2.41" shape="475.91,1951.97 474.49,1951.54 473.85,1950.87"/>
    </edge>
    <edge id=":4224961241_9" function="internal">
        <lane id=":4224961241_9_0" index="0" speed="13.89" length="5.36" shape="470.68,1951.68 469.02,1950.04 467.85,1947.25"/>
    </edge>
    <edge id=":4224961241_10" function="internal">
        <lane id=":4224961241_10_0" index="0" speed="13.89" length="2.41" shape="473.85,1950.87 474.01,1949.96 474.95,1948.81"/>
    </edge>
    <edge id=":4224961241_3" function="internal">
        <lane id=":4224961241_3_0" index="0" disallow="tram rail_urban rail rail_electric ship" speed="13.89" length="5.28" shape="471.03,1946.40 471.61,1947.80 472.46,1948.67 473.57,1949.01 474.95,1948.81"/>
    </edge>
    <edge id=":4224961241_4" function="internal">
        <lane id=":4224961241_4_0" index="0" disallow="tram rail_urban rail rail_electric ship" speed="13.89" length="10.94" shape="471.03,1946.40 471.40,1949.43 470.66,1951.73 468.83,1953.32 465.90,1954.18"/>
    </edge>
    <edge id=":4224961241_5" function="internal">
        <lane id=":4224961241_5_0" index="0" disallow="tram rail_urban rail rail_electric ship" speed="13.89" length="4.82" shape="471.03,1946.40 470.56,1947.81 469.87,1948.42 468.96,1948.24 467.85,1947.25"/>
    </edge>
    <edge id=":4224961241_6" function="internal">
        <lane id=":4224961241_6_0" index="0" disallow="tram rail_urban rail rail_electric ship" speed="13.89" length="5.15" shape="465.43,1950.92 466.81,1950.51 467.67,1949.76 468.02,1948.68 467.85,1947.25"/>
    </edge>
    <edge id=":4224961241_7" function="internal">
        <lane id=":4224961241_7_0" index="0" disallow="tram rail_urban rail rail_electric ship" speed="13.89" length="9.76" shape="465.43,1950.92 468.30,1950.49 470.25,1950.14 472.17,1949.64 474.95,1948.81"/>
    </edge>
    <edge id=":4224961241_8" function="internal">
        <lane id=":4224961241_8_0" index="0" disallow="tram rail_urban rail rail_electric ship" speed="13.89" length="2.41" shape="465.43,1950.92 466.78,1951.56 467.30,1952.31"/>
    </edge>
    <edge id=":4224961241_11" function="internal">
        <lane id=":4224961241_11_0" index="0" speed="13.89" length="2.41" shape="467.30,1952.31 467.01,1953.19 465.90,1954.18"/>
    </edge>
    <edge id=":4224961243_0" function="internal">
        <lane id=":4224961243_0_0" index="0" disallow="tram rail_urban rail rail_electric ship" speed="13.89" length="4.82" shape="840.62,1966.79 841.01,1965.35 841.66,1964.70 842.57,1964.83 843.75,1965.74"/>
    </edge>
    <edge id=":4224961245_0" function="internal">
        <lane id=":4224961245_0_0" index="0" disallow="tram rail_urban rail rail_electric ship" speed="13.89" length="4.82" shape="709.54,1975.01 709.97,1973.59 710.64,1972.95 711.55,1973.11 712.70,1974.06"/>
    </edge>
    <edge id=":4224961246_0" function="internal">
        <lane id=":4224961246_0_0" index="0" disallow="tram rail_urban rail rail_electric ship" speed="13.89" length="4.82" shape="800.61,1980.39 801.08,1978.98 801.76,1978.36 802.67,1978.54 803.79,1979.51"/>
    </edge>
    <edge id=":4224961254_0" function="internal">
        <lane id=":4224961254_0_0" index="0" disallow="tram rail_urban rail rail_electric ship" speed="13.89" length="5.05" shape="720.26,2010.54 719.67,2009.28 718.82,2008.52 717.72,2008.28 716.35,2008.55"/>
    </edge>
    <edge id=":4224961254_1" function="internal">
        <lane id=":4224961254_1_0" index="0" disallow="tram rail_urban rail rail_electric ship" speed="13.89" length="9.51" shape="720.26,2010.54 717.51,2001.44"/>
    </edge>
    <edge id=":4224961254_2" function="internal">
        <lane id=":4224961254_2_0" index="0" disallow="tram rail_urban rail rail_electric ship" speed="13.89" length="2.41" shape="720.26,2010.54 720.69,2009.12 721.36,2008.48"/>
    </edge>
    <edge id=":4224961254_9" function="internal">
        <lane id=":4224961254_9_0" index="0" speed="13.89" length="2.41" shape="721.36,2008.48 722.27,2008.64 723.42,2009.59"/>
    </edge>
    <edge id=":4224961254_3" function="internal">
        <lane id=":4224961254_3_0" index="0" disallow="tram rail_urban rail rail_electric ship" speed="13.89" length="9.51" shape="720.67,2000.49 723.42,2009.59"/>
    </edge>
    <edge id=":4224961254_4" function="internal">
        <lane id=":4224961254_4_0" index="0" disallow="tram rail_urban rail rail_electric ship" speed="13.89" length="5.09" shape="720.67,2000.49 721.07,2003.21 720.49,2005.47"/>
    </edge>
    <edge id=":4224961254_5" function="internal">
        <lane id=":4224961254_5_0" index="0" disallow="tram rail_urban rail rail_electric ship" speed="13.89" length="2.41" shape="720.67,2000.49 720.24,2001.91 719.57,2002.54"/>
    </edge>
    <edge id=":4224961254_10" function="internal">
        <lane id=":4224961254_10_0" index="0" speed="13.89" length="5.25" shape="720.49,2005.47 718.91,2007.25 716.35,2008.55"/>
    </edge>
    <edge id=":4224961254_11" function="internal">
        <lane id=":4224961254_11_0" index="0" speed="13.89" length="2.41" shape="719.57,2002.54 718.66,2002.39 717.51,2001.44"/>
    </edge>
    <edge id=":4224961254_6" function="internal">
        <lane id=":4224961254_6_0" index="0" disallow="tram rail_urban rail rail_electric ship" speed="13.89" length="5.17" shape="715.26,2005.43 716.58,2004.77 717.39,2003.89 717.70,2002.78 717.51,2001.44"/>
    </edge>
    <edge id=":4224961254_7" function="internal">
        <lane id=":4224961254_7_0" index="0" disallow="tram rail_urban rail rail_electric ship" speed="13.89" length="10.54" shape="715.26,2005.43 718.12,2004.88 720.42,2005.38 722.19,2006.95 723.42,2009.59"/>
    </edge>
    <edge id=":4224961254_8" function="internal">
        <lane id=":4224961254_8_0" index="0" disallow="tram rail_urban rail rail_electric ship" speed="13.89" length="4.82" shape="715.26,2005.43 716.70,2005.80 717.37,2006.45 717.25,2007.36 716.35,2008.55"/>
    </edge>
    <edge id=":4224961255_0" function="internal">
        <lane id=":4224961255_0_0" index="0" disallow="tram rail_urban rail rail_electric ship" speed="13.89" length="4.82" shape="593.80,2009.68 592.39,2009.23 591.76,2008.55 591.94,2007.64 592.90,2006.51"/>
    </edge>
    <edge id=":4224961256_0" function="internal">
        <lane id=":4224961256_0_0" index="0" disallow="tram rail_urban rail rail_electric ship" speed="13.89" length="5.06" shape="858.62,2020.34 857.99,2019.10 857.12,2018.37 856.00,2018.17 854.64,2018.49"/>
    </edge>
    <edge id=":4224961256_1" function="internal">
        <lane id=":4224961256_1_0" index="0" disallow="tram rail_urban rail rail_electric ship" speed="13.89" length="9.51" shape="858.62,2020.34 855.59,2011.33"/>
    </edge>
    <edge id=":4224961256_2" function="internal">
        <lane id=":4224961256_2_0" index="0" disallow="tram rail_urban rail rail_electric ship" speed="13.89" length="2.41" shape="858.62,2020.34 859.01,2018.91 859.66,2018.25"/>
    </edge>
    <edge id=":4224961256_9" function="internal">
        <lane id=":4224961256_9_0" index="0" speed="13.89" length="2.41" shape="859.66,2018.25 860.57,2018.38 861.75,2019.29"/>
    </edge>
    <edge id=":4224961256_3" function="internal">
        <lane id=":4224961256_3_0" index="0" disallow="tram rail_urban rail rail_electric ship" speed="13.89" length="9.51" shape="858.72,2010.28 861.75,2019.29"/>
    </edge>
    <edge id=":4224961256_4" function="internal">
        <lane id=":4224961256_4_0" index="0" disallow="tram rail_urban rail rail_electric ship" speed="13.89" length="5.07" shape="858.72,2010.28 859.20,2012.98 858.68,2015.25"/>
    </edge>
    <edge id=":4224961256_5" function="internal">
        <lane id=":4224961256_5_0" index="0" disallow="tram rail_urban rail rail_electric ship" speed="13.89" length="2.41" shape="858.72,2010.28 858.33,2011.71 857.68,2012.37"/>
    </edge>
    <edge id=":4224961256_10" function="internal">
        <lane id=":4224961256_10_0" index="0" speed="13.89" length="5.27" shape="858.68,2015.25 857.16,2017.09 854.64,2018.49"/>
    </edge>
    <edge id=":4224961256_11" function="internal">
        <lane id=":4224961256_11_0" index="0" speed="13.89" length="2.41" shape="857.68,2012.37 856.76,2012.24 855.59,2011.33"/>
    </edge>
    <edge id=":4224961256_6" function="internal">
        <lane id=":4224961256_6_0" index="0" disallow="tram rail_urban rail rail_electric ship" speed="13.89" length="5.21" shape="853.43,2015.42 854.74,2014.70 855.53,2013.78 855.81,2012.66 855.59,2011.33"/>
    </edge>
    <edge id=":4224961256_7" function="internal">
        <lane id=":4224961256_7_0" index="0" disallow="tram rail_urban rail rail_electric ship" speed="13.89" length="10.58" shape="853.43,2015.42 856.28,2014.75 858.61,2015.17 860.43,2016.68 861.75,2019.29"/>
    </edge>
    <edge id=":4224961256_8" function="internal">
        <lane id=":4224961256_8_0" index="0" disallow="tram rail_urban rail rail_electric ship" speed="13.89" length="4.82" shape="853.43,2015.42 854.89,2015.73 855.57,2016.35 855.49,2017.27 854.64,2018.49"/>
    </edge>
    <edge id=":4224961261_0" function="internal">
        <lane id=":4224961261_0_0" index="0" disallow="tram rail_urban rail rail_electric ship" speed="13.89" length="9.50" shape="652.15,2034.02 649.30,2024.96"/>
    </edge>
    <edge id=":4224961261_1" function="internal">
        <lane id=":4224961261_1_0" index="0" disallow="tram rail_urban rail rail_electric ship" speed="13.89" length="5.21" shape="652.15,2034.02 651.71,2031.28 652.26,2029.02 652.33,2028.94"/>
    </edge>
    <edge id=":4224961261_2" function="internal">
        <lane id=":4224961261_2_0" index="0" disallow="tram rail_urban rail rail_electric ship" speed="13.89" length="2.41" shape="652.15,2034.02 652.57,2032.59 653.23,2031.95"/>
    </edge>
    <edge id=":4224961261_9" function="internal">